Info: SIMULATION PARAMETERS:
Info: TIMESTEP               1
Info: NUMBER OF STEPS        0
Info: STEPS PER CYCLE        20
Info: PERIODIC CELL BASIS 1  140 0 0
Info: PERIODIC CELL BASIS 2  0 140 0
Info: PERIODIC CELL BASIS 3  0 0 140
Info: PERIODIC CELL CENTER   0 0 0
Info: WRAPPING ALL CLUSTERS AROUND PERIODIC BOUNDARIES ON OUTPUT.
Info: FIRST LDB TIMESTEP     100
Info: LAST LDB TIMESTEP     -1
Info: HOM BACKGROUND SCALING 1
Info: REMOVING LOAD FROM NODE 0
Info: REMOVING PATCHES FROM PROCESSOR 0
Info: MIN ATOMS PER PATCH    40
Info: INITIAL TEMPERATURE    300
Info: CENTER OF MASS MOVING INITIALLY? NO
Info: DIELECTRIC             1
Info: EXCLUDE                SCALED ONE-FOUR
Info: 1-4 ELECTROSTATICS SCALED BY 1
Info: MODIFIED 1-4 VDW PARAMETERS WILL BE USED
Info: DCD FILENAME           01_01.dcd
Info: DCD FREQUENCY          2500
Info: DCD FIRST STEP         2500
Info: DCD FILE WILL CONTAIN UNIT CELL DATA
Info: XST FILENAME           01_01.xst
Info: XST FREQUENCY          5000
Info: NO VELOCITY DCD OUTPUT
Info: NO FORCE DCD OUTPUT
Info: OUTPUT FILENAME        01_01
Info: BINARY OUTPUT FILES WILL BE USED
Info: RESTART FILENAME       01_01.restart
Info: RESTART FREQUENCY      25000
Info: BINARY RESTART FILES WILL BE USED
Info: SWITCHING ACTIVE
Info: SWITCHING ON           10
Info: SWITCHING OFF          12
Info: PAIRLIST DISTANCE      13.5
Info: PAIRLIST SHRINK RATE   0.01
Info: PAIRLIST GROW RATE     0.01
Info: PAIRLIST TRIGGER       0.3
Info: PAIRLISTS PER CYCLE    2
Info: PAIRLISTS ENABLED
Info: MARGIN                 0.96
Info: HYDROGEN GROUP CUTOFF  2.5
Info: PATCH DIMENSION        16.96
Info: ENERGY OUTPUT STEPS    10000
Info: CROSSTERM ENERGY INCLUDED IN DIHEDRAL
Info: TIMING OUTPUT STEPS    100000
Info: PRESSURE OUTPUT STEPS  10000
Info: LANGEVIN DYNAMICS ACTIVE
Info: LANGEVIN TEMPERATURE   300
Info: LANGEVIN USING BBK INTEGRATOR
Info: LANGEVIN DAMPING COEFFICIENT IS 5 INVERSE PS
Info: LANGEVIN DYNAMICS NOT APPLIED TO HYDROGENS
Info: LANGEVIN PISTON PRESSURE CONTROL ACTIVE
Info:        TARGET PRESSURE IS 1.01325 BAR
Info:     OSCILLATION PERIOD IS 200 FS
Info:             DECAY TIME IS 50 FS
Info:     PISTON TEMPERATURE IS 300 K
Info:       PRESSURE CONTROL IS GROUP-BASED
Info:    INITIAL STRAIN RATE IS 0 0 0
Info:       CELL FLUCTUATION IS ANISOTROPIC
Info: USING VERLET I (r-RESPA) MTS SCHEME.
Info: C1 SPLITTING OF LONG RANGE ELECTROSTATICS
Info: PLACING ATOMS IN PATCHES BY HYDROGEN GROUPS
Info: RANDOM NUMBER SEED     1687867551
Info: USE HYDROGEN BONDS?    NO
Info: COORDINATE PDB         /scratch-emmy/usr/nipjonhu/NAMD_AutoConf/Example1_Simple_Simulation/6rko_no_uql.pdb
Info: STRUCTURE FILE         /scratch-emmy/usr/nipjonhu/NAMD_AutoConf/Example1_Simple_Simulation/6rko_no_uql.psf
Info: PARAMETER file: CHARMM format!
Info: PARAMETERS             /scratch-emmy/usr/nipjonhu/NAMD_AutoConf/Example1_Simple_Simulation/parameters_Example2/par_all36_prot.prm
Info: PARAMETERS             /scratch-emmy/usr/nipjonhu/NAMD_AutoConf/Example1_Simple_Simulation/parameters_Example2/par_all36_na.prm
Info: PARAMETERS             /scratch-emmy/usr/nipjonhu/NAMD_AutoConf/Example1_Simple_Simulation/parameters_Example2/par_all36_carb.prm
Info: PARAMETERS             /scratch-emmy/usr/nipjonhu/NAMD_AutoConf/Example1_Simple_Simulation/parameters_Example2/par_all36_lipid.prm
Info: PARAMETERS             /scratch-emmy/usr/nipjonhu/NAMD_AutoConf/Example1_Simple_Simulation/parameters_Example2/par_all36_cgenff.prm
Info: PARAMETERS             /scratch-emmy/usr/nipjonhu/NAMD_AutoConf/Example1_Simple_Simulation/parameters_Example2/toppar_all36_label_spin.str
Info: PARAMETERS             /scratch-emmy/usr/nipjonhu/NAMD_AutoConf/Example1_Simple_Simulation/parameters_Example2/toppar_all36_lipid_bacterial.str
Info: PARAMETERS             /scratch-emmy/usr/nipjonhu/NAMD_AutoConf/Example1_Simple_Simulation/parameters_Example2/toppar_all36_lipid_cardiolipin.str
Info: PARAMETERS             /scratch-emmy/usr/nipjonhu/NAMD_AutoConf/Example1_Simple_Simulation/parameters_Example2/toppar_all36_lipid_cholesterol.str
Info: PARAMETERS             /scratch-emmy/usr/nipjonhu/NAMD_AutoConf/Example1_Simple_Simulation/parameters_Example2/toppar_all36_lipid_dag.str
Info: PARAMETERS             /scratch-emmy/usr/nipjonhu/NAMD_AutoConf/Example1_Simple_Simulation/parameters_Example2/toppar_all36_lipid_hmmm.str
Info: PARAMETERS             /scratch-emmy/usr/nipjonhu/NAMD_AutoConf/Example1_Simple_Simulation/parameters_Example2/toppar_all36_lipid_inositol.str
Info: PARAMETERS             /scratch-emmy/usr/nipjonhu/NAMD_AutoConf/Example1_Simple_Simulation/parameters_Example2/toppar_all36_lipid_lnp.str
Info: PARAMETERS             /scratch-emmy/usr/nipjonhu/NAMD_AutoConf/Example1_Simple_Simulation/parameters_Example2/toppar_all36_lipid_lps.str
Info: PARAMETERS             /scratch-emmy/usr/nipjonhu/NAMD_AutoConf/Example1_Simple_Simulation/parameters_Example2/toppar_all36_lipid_miscellaneous.str
Info: PARAMETERS             /scratch-emmy/usr/nipjonhu/NAMD_AutoConf/Example1_Simple_Simulation/parameters_Example2/toppar_all36_lipid_model.str
Info: PARAMETERS             /scratch-emmy/usr/nipjonhu/NAMD_AutoConf/Example1_Simple_Simulation/parameters_Example2/toppar_all36_lipid_mycobacterial.str
Info: PARAMETERS             /scratch-emmy/usr/nipjonhu/NAMD_AutoConf/Example1_Simple_Simulation/parameters_Example2/toppar_all36_lipid_prot.str
Info: PARAMETERS             /scratch-emmy/usr/nipjonhu/NAMD_AutoConf/Example1_Simple_Simulation/parameters_Example2/toppar_all36_lipid_tag.str
Info: PARAMETERS             /scratch-emmy/usr/nipjonhu/NAMD_AutoConf/Example1_Simple_Simulation/parameters_Example2/toppar_all36_na_nad_ppi.str
Info: PARAMETERS             /scratch-emmy/usr/nipjonhu/NAMD_AutoConf/Example1_Simple_Simulation/parameters_Example2/toppar_all36_prot_arg0.str
Info: PARAMETERS             /scratch-emmy/usr/nipjonhu/NAMD_AutoConf/Example1_Simple_Simulation/parameters_Example2/toppar_all36_prot_fluoro_alkanes.str
Info: PARAMETERS             /scratch-emmy/usr/nipjonhu/NAMD_AutoConf/Example1_Simple_Simulation/parameters_Example2/toppar_all36_prot_heme.str
Info: PARAMETERS             /scratch-emmy/usr/nipjonhu/NAMD_AutoConf/Example1_Simple_Simulation/parameters_Example2/toppar_all36_prot_model.str
Info: PARAMETERS             /scratch-emmy/usr/nipjonhu/NAMD_AutoConf/Example1_Simple_Simulation/parameters_Example2/toppar_all36_prot_modify_res.str
Info: PARAMETERS             /scratch-emmy/usr/nipjonhu/NAMD_AutoConf/Example1_Simple_Simulation/parameters_Example2/toppar_all36_prot_na_combined.str
Info: PARAMETERS             /scratch-emmy/usr/nipjonhu/NAMD_AutoConf/Example1_Simple_Simulation/parameters_Example2/toppar_all36_prot_retinol.str
Info: PARAMETERS             /scratch-emmy/usr/nipjonhu/NAMD_AutoConf/Example1_Simple_Simulation/parameters_Example2/par_water_ions.str
Info: PARAMETERS             /scratch-emmy/usr/nipjonhu/NAMD_AutoConf/Example1_Simple_Simulation/parameters_Example2/heme_met_his.prm
Info: PARAMETERS             /scratch-emmy/usr/nipjonhu/NAMD_AutoConf/Example1_Simple_Simulation/parameters_Example2/quinones.prm
Info: PARAMETERS             /scratch-emmy/usr/nipjonhu/NAMD_AutoConf/Example1_Simple_Simulation/parameters_Example2/toppar_hemeD.str
Info: USING ARITHMETIC MEAN TO COMBINE L-J SIGMA PARAMETERS
Info: SKIPPING rtf SECTION IN STREAM FILE
Info: SKIPPING rtf SECTION IN STREAM FILE
Info: SKIPPING rtf SECTION IN STREAM FILE
Info: SKIPPING rtf SECTION IN STREAM FILE
Info: SKIPPING rtf SECTION IN STREAM FILE
Info: SKIPPING rtf SECTION IN STREAM FILE
Info: SKIPPING rtf SECTION IN STREAM FILE
Info: SKIPPING rtf SECTION IN STREAM FILE
Info: SKIPPING rtf SECTION IN STREAM FILE
Info: SKIPPING rtf SECTION IN STREAM FILE
Info: SKIPPING rtf SECTION IN STREAM FILE
Info: SKIPPING rtf SECTION IN STREAM FILE
Info: SKIPPING rtf SECTION IN STREAM FILE
Info: SKIPPING rtf SECTION IN STREAM FILE
Info: SKIPPING rtf SECTION IN STREAM FILE
Info: SKIPPING rtf SECTION IN STREAM FILE
Info: SKIPPING rtf SECTION IN STREAM FILE
Info: SKIPPING rtf SECTION IN STREAM FILE
Info: SKIPPING rtf SECTION IN STREAM FILE
Info: SKIPPING rtf SECTION IN STREAM FILE
Info: SUMMARY OF PARAMETERS:
Info: 1405 BONDS
Info: 4660 ANGLES
Info: 13286 DIHEDRAL
Info: 341 IMPROPER
Info: 24 CROSSTERM
Info: 462 VDW
Info: 95 VDW_PAIRS
Info: 0 NBTHOLE_PAIRS
Info: STRUCTURE SUMMARY:
Info: 247863 ATOMS
Info: 190452 BONDS
Info: 201952 ANGLES
Info: 204379 DIHEDRALS
Info: 3556 IMPROPERS
Info: 959 CROSSTERMS
Info: 0 EXCLUSIONS
Info: 743589 DEGREES OF FREEDOM
Info: 89097 HYDROGEN GROUPS
Info: 4 ATOMS IN LARGEST HYDROGEN GROUP
Info: 89097 MIGRATION GROUPS
Info: 4 ATOMS IN LARGEST MIGRATION GROUP
Info: TOTAL MASS = 1.49867e+06 amu
Info: TOTAL CHARGE = 3.75613e-05 e
Info: MASS DENSITY = 0.906946 g/cm^3
Info: ATOM DENSITY = 0.0903291 atoms/A^3
Info: ADDED 592063 IMPLICIT EXCLUSIONS
Info: NONBONDED TABLE R-SQUARED SPACING: 0.0625
Info: NONBONDED TABLE SIZE: 769 POINTS
Info: REMOVING COM VELOCITY 0.0065502 -0.0101067 -0.0020188
TCL: Minimizing for 25000 steps
ETITLE: TS BOND ANGLE DIHED IMPRP ELECT VDW BOUNDARY MISC KINETIC TOTAL TEMP POTENTIAL TOTAL3 TEMPAVG PRESSURE GPRESSURE VOLUME PRESSAVG GPRESSAVG
ENERGY: 0 15477.9916 44420.1328 35180.9591 484.7283 -621547.5566 99999999999.9999 0.0000 0.0000 0.0000 99999999999.9999 0.0000 99999999999.9999 99999999999.9999 0.0000 99999999999.9999 99999999999.9999 2744000.0000 99999999999.9999 99999999999.9999
ENERGY: 704 27613.9768 40358.9574 36624.7188 358.6454 -865250.6924 69095.5393 0.0000 0.0000 0.0000 -691198.8547 0.0000 -691198.8547 -691198.8547 0.0000 -1045.5947 -1079.9839 2744000.0000 -1045.5947 -1079.9839
ENERGY: 1409 28749.3016 34332.7460 35828.3914 296.7187 -915190.0900 72810.8483 0.0000 0.0000 0.0000 -743172.0839 0.0000 -743172.0839 -743172.0839 0.0000 -3048.1433 -3059.0699 2744000.0000 -3048.1433 -3059.0699
ENERGY: 2113 30406.2915 31826.3447 33940.5857 237.2272 -968745.6470 83173.5198 0.0000 0.0000 0.0000 -789161.6781 0.0000 -789161.6781 -789161.6781 0.0000 -3893.6806 -3905.5217 2744000.0000 -3893.6806 -3905.5217
ENERGY: 2818 31066.1649 31621.1563 32832.2210 222.0930 -990216.8451 87293.0800 0.0000 0.0000 0.0000 -807182.1299 0.0000 -807182.1299 -807182.1299 0.0000 -3998.3418 -4009.0053 2744000.0000 -3998.3418 -4009.0053
ENERGY: 3522 31287.5006 31716.1184 32342.1057 210.7231 -999069.1194 89719.9901 0.0000 0.0000 0.0000 -813792.6816 0.0000 -813792.6816 -813792.6816 0.0000 -3837.3555 -3860.0983 2744000.0000 -3837.3555 -3860.0983
