Info: SIMULATION PARAMETERS:
Info: TIMESTEP               1
Info: NUMBER OF STEPS        0
Info: STEPS PER CYCLE        20
Info: PERIODIC CELL BASIS 1  44.1569 0 0
Info: PERIODIC CELL BASIS 2  0 44.1319 0
Info: PERIODIC CELL BASIS 3  0 0 44.1223
Info: PERIODIC CELL CENTER   0 0 0
Info: FIRST LDB TIMESTEP     100
Info: LAST LDB TIMESTEP     -1
Info: HOM BACKGROUND SCALING 1
Info: PME BACKGROUND SCALING 1
Info: REMOVING PATCHES FROM PROCESSOR 0
Info: MIN ATOMS PER PATCH    40
Info: VELOCITY FILE          ../02_FEP/02_01.restart.vel
Info: CENTER OF MASS MOVING INITIALLY? NO
Info: DIELECTRIC             1
Info: EXCLUDE                SCALED ONE-FOUR
Info: 1-4 ELECTROSTATICS SCALED BY 1
Info: MODIFIED 1-4 VDW PARAMETERS WILL BE USED
Info: DCD FILENAME           03_01.dcd
Info: DCD FREQUENCY          5000
Info: DCD FIRST STEP         5000
Info: DCD FILE WILL CONTAIN UNIT CELL DATA
Info: XST FILENAME           03_01.xst
Info: XST FREQUENCY          5000
Info: NO VELOCITY DCD OUTPUT
Info: NO FORCE DCD OUTPUT
Info: OUTPUT FILENAME        03_01
Info: BINARY OUTPUT FILES WILL BE USED
Info: RESTART FILENAME       03_01.restart
Info: RESTART FREQUENCY      20000
Info: BINARY RESTART FILES WILL BE USED
Info: SWITCHING ACTIVE
Info: SWITCHING ON           10
Info: SWITCHING OFF          12
Info: PAIRLIST DISTANCE      13.5
Info: PAIRLIST SHRINK RATE   0.01
Info: PAIRLIST GROW RATE     0.01
Info: PAIRLIST TRIGGER       0.3
Info: PAIRLISTS PER CYCLE    2
Info: PAIRLISTS ENABLED
Info: MARGIN                 3
Info: HYDROGEN GROUP CUTOFF  2.5
Info: PATCH DIMENSION        19
Info: ENERGY OUTPUT STEPS    10000
Info: CROSSTERM ENERGY INCLUDED IN DIHEDRAL
Info: TIMING OUTPUT STEPS    100000
Info: PRESSURE OUTPUT STEPS  10000
Info: ALCHEMICAL FEP ON
Info: FEP CURRENT LAMBDA VALUE     1
Info: FEP COMPARISON LAMBDA VALUE  0.996
Info: FEP INTRA-ALCHEMICAL NON-BONDED INTERACTIONS WILL BE DECOUPLED
Info: FEP INTRA-ALCHEMICAL BONDED INTERACTIONS WILL BE RETAINED
Info: FEP VDW SHIFTING COEFFICIENT 4
Info: FEP ELEC. ACTIVE FOR ANNIHILATED PARTICLES BETWEEN LAMBDA = 0 AND LAMBDA = 0.5
Info: FEP ELEC. ACTIVE FOR EXNIHILATED PARTICLES BETWEEN LAMBDA = 0.5 AND LAMBDA = 1
Info: FEP VDW ACTIVE FOR ANNIHILATED PARTICLES BETWEEN LAMBDA = 0.4 AND LAMBDA = 1
Info: FEP VDW ACTIVE FOR EXNIHILATED PARTICLES BETWEEN LAMBDA = 0 AND LAMBDA = 0.6
Info: FEP BOND ACTIVE FOR ANNIHILATED PARTICLES BETWEEN LAMBDA = 1 AND LAMBDA = 1
Info: FEP BOND ACTIVE FOR EXNIHILATED PARTICLES BETWEEN LAMBDA = 0 AND LAMBDA = 0
Info: COLLECTIVE VARIABLES CALCULATION REQUESTED
Info: COLLECTIVE VARIABLES CONFIGURATION   ../../overlay_A_B_atoms.colvars
Info: LANGEVIN DYNAMICS ACTIVE
Info: LANGEVIN TEMPERATURE   300
Info: LANGEVIN USING BBK INTEGRATOR
Info: LANGEVIN DAMPING COEFFICIENT IS 5 INVERSE PS
Info: LANGEVIN DYNAMICS NOT APPLIED TO HYDROGENS
Info: PARTICLE MESH EWALD (PME) ACTIVE
Info: PME TOLERANCE               1e-06
Info: PME EWALD COEFFICIENT       0.257952
Info: PME INTERPOLATION ORDER     4
Info: PME GRID DIMENSIONS         48 48 48
Info: PME MAXIMUM GRID SPACING    1
Info: FULL ELECTROSTATIC EVALUATION FREQUENCY      2
Info: USING VERLET I (r-RESPA) MTS SCHEME.
Info: C1 SPLITTING OF LONG RANGE ELECTROSTATICS
Info: PLACING ATOMS IN PATCHES BY HYDROGEN GROUPS
Info: RANDOM NUMBER SEED     1685552771
Info: USE HYDROGEN BONDS?    NO
Info: COORDINATE PDB         ../../MC1_A_005NACL_rep3.pdb
Info: STRUCTURE FILE         ../../MC1_A_005NACL_rep3.psf
Info: PARAMETER file: CHARMM format!
Info: PARAMETERS             ../../../../parameters/par_water_ions.str
Info: PARAMETERS             ../../../../parameters/par_all36_carb.prm
Info: PARAMETERS             ../../../../parameters/GALP.par
Info: USING ARITHMETIC MEAN TO COMBINE L-J SIGMA PARAMETERS
Info: BINARY COORDINATES     ../02_FEP/02_01.restart.coor
Info: SUMMARY OF PARAMETERS:
Info: 159 BONDS
Info: 448 ANGLES
Info: 1399 DIHEDRAL
Info: 15 IMPROPER
Info: 0 CROSSTERM
Info: 86 VDW
Info: 13 VDW_PAIRS
Info: 0 NBTHOLE_PAIRS
Info: To read alchdata from file: ../../MC1_A_005NACL_rep3.pdb
Info: To read alchflag data from column: 5
Info: STRUCTURE SUMMARY:
Info: 9004 ATOMS
Info: 6047 BONDS
Info: 3213 ANGLES
Info: 414 DIHEDRALS
Info: 6 IMPROPERS
Info: 0 CROSSTERMS
Info: 0 EXCLUSIONS
Info: ALCH: 32 ATOMS TO DISAPPEAR IN FINAL STATE
Info: ALCH: 33 ATOMS TO APPEAR IN FINAL STATE
Info: 27012 DEGREES OF FREEDOM
Info: 3034 HYDROGEN GROUPS
Info: 4 ATOMS IN LARGEST HYDROGEN GROUP
Info: 3034 MIGRATION GROUPS
Info: 4 ATOMS IN LARGEST MIGRATION GROUP
Info: TOTAL MASS = 54495.3 amu
Info: TOTAL CHARGE = 0.723 e
Info: MASS DENSITY = 1.05247 g/cm^3
Info: ATOM DENSITY = 0.104719 atoms/A^3
Info: ADDED 9645 IMPLICIT EXCLUSIONS
Info: NONBONDED TABLE R-SQUARED SPACING: 0.0625
Info: NONBONDED TABLE SIZE: 769 POINTS
Info: REMOVING COM VELOCITY -0.151407 -0.0574433 0.0402391
TCL: Running for 20000 steps
ETITLE: TS BOND ANGLE DIHED IMPRP ELECT VDW BOUNDARY MISC KINETIC TOTAL TEMP POTENTIAL TOTAL3 TEMPAVG PRESSURE GPRESSURE VOLUME PRESSAVG GPRESSAVG
ENERGY: 0 3066.9454 1815.5565 223.6464 0.8978 -38611.7619 4163.2763 0.0000 1.8440 7951.3987 -21388.1967 296.2628 -29339.5954 -21313.3642 296.2628 -183.7961 -109.8316 85982.2887 -183.7961 -109.8316
ENERGY: 10000 2987.9584 1779.7727 217.4224 1.9683 -38413.8845 4142.9337 0.0000 1.3033 8081.2826 -21201.2429 301.1022 -29282.5256 -21124.6210 298.9926 502.8673 -106.9813 85982.2887 59.8707 59.8124
ENERGY: 20000 3006.1505 1721.6825 223.2363 3.3954 -38565.9397 4359.3598 0.0000 2.5090 8002.0578 -21247.5484 298.1504 -29249.6062 -21169.9357 299.3986 1473.1389 712.5505 85982.2887 -23.9988 -23.9093
TCL: Running FEP window   2: Lambda1 0.996  Lambda2 0.992  [dLambda -0.0040000000000000036]
TCL: Setting parameter firsttimestep to 0
TCL: Setting parameter alchLambda to 0.996
Info: NONBONDED TABLE R-SQUARED SPACING: 0.0625
Info: NONBONDED TABLE SIZE: 769 POINTS
TCL: Setting parameter alchLambda2 to 0.992
Info: NONBONDED TABLE R-SQUARED SPACING: 0.0625
Info: NONBONDED TABLE SIZE: 769 POINTS
TCL: Running for 20000 steps
ETITLE: TS BOND ANGLE DIHED IMPRP ELECT VDW BOUNDARY MISC KINETIC TOTAL TEMP POTENTIAL TOTAL3 TEMPAVG PRESSURE GPRESSURE VOLUME PRESSAVG GPRESSAVG
ENERGY: 0 3006.1505 1721.6825 223.2363 3.3954 -38564.3383 4359.1887 0.0000 2.5090 8002.0578 -21246.1182 298.1504 -29248.1760 -21169.1016 298.1504 1473.7776 713.6546 85982.2887 1473.7776 713.6546
ENERGY: 10000 3031.2778 1838.4025 218.5539 1.7131 -38497.8882 4136.2036 0.0000 3.0420 8010.2007 -21258.4946 298.4537 -29268.6953 -21187.5661 298.5618 80.2783 -91.1055 85982.2887 -3.7037 -3.5258
ENERGY: 20000 2959.9553 1826.1969 229.0122 1.5980 -38365.7923 4199.6662 0.0000 1.8328 8195.9524 -20951.5784 305.3747 -29147.5308 -20873.7477 299.0676 1127.5992 258.2378 85982.2887 54.4188 54.2477
TCL: Running FEP window   3: Lambda1 0.992  Lambda2 0.988  [dLambda -0.0040000000000000036]
TCL: Setting parameter firsttimestep to 0
TCL: Setting parameter alchLambda to 0.992
Info: NONBONDED TABLE R-SQUARED SPACING: 0.0625
Info: NONBONDED TABLE SIZE: 769 POINTS
TCL: Setting parameter alchLambda2 to 0.988
Info: NONBONDED TABLE R-SQUARED SPACING: 0.0625
Info: NONBONDED TABLE SIZE: 769 POINTS
TCL: Running for 20000 steps
ETITLE: TS BOND ANGLE DIHED IMPRP ELECT VDW BOUNDARY MISC KINETIC TOTAL TEMP POTENTIAL TOTAL3 TEMPAVG PRESSURE GPRESSURE VOLUME PRESSAVG GPRESSAVG
ENERGY: 0 2959.9553 1826.1969 229.0122 1.5980 -38364.1150 4199.4839 0.0000 1.8328 8195.9524 -20950.0835 305.3747 -29146.0359 -20871.6727 305.3747 1127.6039 258.7941 85982.2887 1127.6039 258.7941
ENERGY: 10000 3066.9986 1821.1881 229.7453 0.5810 -38299.6508 3972.8294 0.0000 1.8365 7994.8800 -21211.5919 297.8829 -29206.4719 -21139.1176 298.6273 -564.5994 -588.9045 85982.2887 38.4434 38.3539
ENERGY: 20000 2990.5972 1814.7779 223.9818 1.8056 -38461.9476 4254.7998 0.0000 2.0621 7948.1847 -21225.7384 296.1431 -29173.9231 -21151.0294 298.0212 721.1718 284.8767 85982.2887 20.0416 20.0330
TCL: Running FEP window   4: Lambda1 0.988  Lambda2 0.984  [dLambda -0.0040000000000000036]
TCL: Setting parameter firsttimestep to 0
TCL: Setting parameter alchLambda to 0.988
Info: NONBONDED TABLE R-SQUARED SPACING: 0.0625
Info: NONBONDED TABLE SIZE: 769 POINTS
TCL: Setting parameter alchLambda2 to 0.984
Info: NONBONDED TABLE R-SQUARED SPACING: 0.0625
Info: NONBONDED TABLE SIZE: 769 POINTS
TCL: Running for 20000 steps
ETITLE: TS BOND ANGLE DIHED IMPRP ELECT VDW BOUNDARY MISC KINETIC TOTAL TEMP POTENTIAL TOTAL3 TEMPAVG PRESSURE GPRESSURE VOLUME PRESSAVG GPRESSAVG
ENERGY: 0 2990.5972 1814.7779 223.9818 1.8056 -38460.4099 4254.7752 0.0000 2.0621 7948.1847 -21224.2253 296.1431 -29172.4100 -21150.3909 296.1431 722.1134 286.0584 85982.2887 722.1134 286.0584
ENERGY: 10000 3085.9552 1821.3043 222.8359 1.8369 -38537.8730 4156.8209 0.0000 1.6125 7940.2147 -21307.2927 295.8461 -29247.5074 -21237.7822 300.0481 -678.6070 -43.9911 85982.2887 37.2957 37.1445
ENERGY: 20000 3033.9087 1872.0701 228.7639 1.8164 -38679.4673 4090.3279 0.0000 3.8653 7888.2631 -21560.4518 293.9105 -29448.7148 -21490.5225 297.2482 -85.2375 -501.9266 85982.2887 78.7020 78.8558
TCL: Running FEP window   5: Lambda1 0.984  Lambda2 0.98   [dLambda -0.0040000000000000036]
TCL: Setting parameter firsttimestep to 0
TCL: Setting parameter alchLambda to 0.984
Info: NONBONDED TABLE R-SQUARED SPACING: 0.0625
Info: NONBONDED TABLE SIZE: 769 POINTS
TCL: Setting parameter alchLambda2 to 0.98
Info: NONBONDED TABLE R-SQUARED SPACING: 0.0625
Info: NONBONDED TABLE SIZE: 769 POINTS
TCL: Running for 20000 steps
ETITLE: TS BOND ANGLE DIHED IMPRP ELECT VDW BOUNDARY MISC KINETIC TOTAL TEMP POTENTIAL TOTAL3 TEMPAVG PRESSURE GPRESSURE VOLUME PRESSAVG GPRESSAVG
ENERGY: 0 3033.9087 1872.0701 228.7639 1.8164 -38677.8979 4090.1661 0.0000 3.8653 7888.2631 -21559.0442 293.9105 -29447.3072 -21487.1275 293.9105 -85.9803 -502.2172 85982.2887 -85.9803 -502.2172
ENERGY: 10000 3129.6269 1799.9250 230.8382 1.6965 -38693.8359 4148.3974 0.0000 2.1354 8055.7244 -21325.4919 300.1499 -29381.2164 -21247.1696 298.7051 -996.1146 -232.6681 85982.2887 71.8363 71.8034
ENERGY: 20000 3116.7062 1760.0987 226.2508 1.0182 -38479.2963 4180.1782 0.0000 1.6707 8063.4002 -21129.9732 300.4359 -29193.3735 -21056.0126 298.2528 -61.9648 -7.5608 85982.2887 64.8329 64.6100
TCL: Running FEP window   6: Lambda1 0.98   Lambda2 0.976  [dLambda -0.0040000000000000036]
TCL: Setting parameter firsttimestep to 0
TCL: Setting parameter alchLambda to 0.98
Info: NONBONDED TABLE R-SQUARED SPACING: 0.0625
Info: NONBONDED TABLE SIZE: 769 POINTS
TCL: Setting parameter alchLambda2 to 0.976
Info: NONBONDED TABLE R-SQUARED SPACING: 0.0625
Info: NONBONDED TABLE SIZE: 769 POINTS
TCL: Running for 20000 steps
ETITLE: TS BOND ANGLE DIHED IMPRP ELECT VDW BOUNDARY MISC KINETIC TOTAL TEMP POTENTIAL TOTAL3 TEMPAVG PRESSURE GPRESSURE VOLUME PRESSAVG GPRESSAVG
ENERGY: 0 3116.7062 1760.0987 226.2508 1.0182 -38477.7200 4179.9673 0.0000 1.6707 8063.4002 -21128.6079 300.4359 -29192.0081 -21056.1950 300.4359 -60.8712 -5.4941 85982.2887 -60.8712 -5.4941
ENERGY: 10000 3120.2383 1842.5030 222.0148 1.1109 -38534.0317 4194.7100 0.0000 1.4760 8015.6853 -21136.2934 298.6581 -29151.9786 -21059.8755 299.8642 -864.2407 102.2680 85982.2887 34.1191 34.1347
ENERGY: 20000 3068.3663 1800.4576 227.4305 0.7154 -38534.2415 4118.3054 0.0000 1.5795 8036.2111 -21281.1756 299.4229 -29317.3867 -21207.2523 299.1448 -646.6596 -178.6069 85982.2887 67.3286 67.3530
TCL: Running FEP window   7: Lambda1 0.976  Lambda2 0.972  [dLambda -0.0040000000000000036]
TCL: Setting parameter firsttimestep to 0
TCL: Setting parameter alchLambda to 0.976
Info: NONBONDED TABLE R-SQUARED SPACING: 0.0625
Info: NONBONDED TABLE SIZE: 769 POINTS
TCL: Setting parameter alchLambda2 to 0.972
Info: NONBONDED TABLE R-SQUARED SPACING: 0.0625
Info: NONBONDED TABLE SIZE: 769 POINTS
TCL: Running for 20000 steps
ETITLE: TS BOND ANGLE DIHED IMPRP ELECT VDW BOUNDARY MISC KINETIC TOTAL TEMP POTENTIAL TOTAL3 TEMPAVG PRESSURE GPRESSURE VOLUME PRESSAVG GPRESSAVG
ENERGY: 0 3068.3663 1800.4576 227.4305 0.7154 -38532.5712 4118.1644 0.0000 1.5795 8036.2111 -21279.6464 299.4229 -29315.8575 -21206.6614 299.4229 -645.7615 -176.8856 85982.2887 -645.7615 -176.8856
ENERGY: 10000 3085.3381 1768.5641 229.5563 1.0813 -38677.5024 4280.9721 0.0000 1.4118 8058.5047 -21252.0742 300.2535 -29310.5789 -21178.8310 300.0922 309.2215 110.8537 85982.2887 4.3248 4.6749
ENERGY: 20000 3004.7983 1781.7451 228.0261 1.3469 -38561.3039 4263.8406 0.0000 3.5156 8123.1862 -21154.8451 302.6635 -29278.0313 -21076.0163 299.6726 787.8409 367.0216 85982.2887 82.2951 82.0981
TCL: Running FEP window   8: Lambda1 0.972  Lambda2 0.968  [dLambda -0.0040000000000000036]
TCL: Setting parameter firsttimestep to 0
TCL: Setting parameter alchLambda to 0.972
Info: NONBONDED TABLE R-SQUARED SPACING: 0.0625
Info: NONBONDED TABLE SIZE: 769 POINTS
TCL: Setting parameter alchLambda2 to 0.968
Info: NONBONDED TABLE R-SQUARED SPACING: 0.0625
Info: NONBONDED TABLE SIZE: 769 POINTS
TCL: Running for 20000 steps
ETITLE: TS BOND ANGLE DIHED IMPRP ELECT VDW BOUNDARY MISC KINETIC TOTAL TEMP POTENTIAL TOTAL3 TEMPAVG PRESSURE GPRESSURE VOLUME PRESSAVG GPRESSAVG
ENERGY: 0 3004.7983 1781.7451 228.0261 1.3469 -38559.6582 4263.6452 0.0000 3.5156 8123.1862 -21153.3947 302.6635 -29276.5810 -21074.1332 302.6635 787.9115 368.1353 85982.2887 787.9115 368.1353
ENERGY: 10000 3095.9968 1721.0749 224.3743 1.9574 -38483.1578 4209.0717 0.0000 1.9402 8107.7968 -21120.9458 302.0901 -29228.7426 -21044.2838 299.6247 295.9925 259.2252 85982.2887 82.7346 82.6631
ENERGY: 20000 3085.3775 1810.8710 228.2507 1.4174 -38618.0609 4180.8455 0.0000 3.5235 8096.3300 -21211.4453 301.6629 -29307.7753 -21129.7284 299.2947 -327.2870 -86.9758 85982.2887 55.2149 55.1196
TCL: Running FEP window   9: Lambda1 0.968  Lambda2 0.964  [dLambda -0.0040000000000000036]
TCL: Setting parameter firsttimestep to 0
TCL: Setting parameter alchLambda to 0.968
Info: NONBONDED TABLE R-SQUARED SPACING: 0.0625
Info: NONBONDED TABLE SIZE: 769 POINTS
TCL: Setting parameter alchLambda2 to 0.964
Info: NONBONDED TABLE R-SQUARED SPACING: 0.0625
Info: NONBONDED TABLE SIZE: 769 POINTS
TCL: Running for 20000 steps
ETITLE: TS BOND ANGLE DIHED IMPRP ELECT VDW BOUNDARY MISC KINETIC TOTAL TEMP POTENTIAL TOTAL3 TEMPAVG PRESSURE GPRESSURE VOLUME PRESSAVG GPRESSAVG
ENERGY: 0 3085.3775 1810.8710 228.2507 1.4174 -38616.4184 4180.7285 0.0000 3.5235 8096.3300 -21209.9198 301.6629 -29306.2499 -21131.5549 301.6629 -325.0592 -84.7826 85982.2887 -325.0592 -84.7826
ENERGY: 10000 3050.3703 1810.0813 223.9791 1.4946 -38854.6742 4254.0020 0.0000 2.1511 8099.6840 -21412.9118 301.7878 -29512.5958 -21336.6622 298.8762 -28.4660 -57.3316 85982.2887 71.0856 71.0333
ENERGY: 20000 3119.5393 1814.8316 221.4920 0.6046 -38648.7489 4254.3210 0.0000 0.8651 8096.9809 -21140.1145 301.6871 -29237.0954 -21061.7267 299.0094 -119.0628 131.8700 85982.2887 84.8777 85.1533
TCL: Running FEP window  10: Lambda1 0.964  Lambda2 0.96   [dLambda -0.0040000000000000036]
TCL: Setting parameter firsttimestep to 0
TCL: Setting parameter alchLambda to 0.964
Info: NONBONDED TABLE R-SQUARED SPACING: 0.0625
Info: NONBONDED TABLE SIZE: 769 POINTS
TCL: Setting parameter alchLambda2 to 0.96
Info: NONBONDED TABLE R-SQUARED SPACING: 0.0625
Info: NONBONDED TABLE SIZE: 769 POINTS
TCL: Running for 20000 steps
ETITLE: TS BOND ANGLE DIHED IMPRP ELECT VDW BOUNDARY MISC KINETIC TOTAL TEMP POTENTIAL TOTAL3 TEMPAVG PRESSURE GPRESSURE VOLUME PRESSAVG GPRESSAVG
ENERGY: 0 3119.5393 1814.8316 221.4920 0.6046 -38647.2736 4254.1518 0.0000 0.8651 8096.9809 -21138.8083 301.6871 -29235.7892 -21061.9901 301.6871 -117.9367 133.5223 85982.2887 -117.9367 133.5223
ENERGY: 10000 3114.4685 1775.5363 216.7965 1.8475 -38457.6225 4188.6605 0.0000 1.1932 7956.2926 -21202.8275 296.4452 -29159.1201 -21138.5823 299.5813 -120.5263 65.1427 85982.2887 -44.2674 -44.3835
ENERGY: 20000 3116.0255 1802.0493 224.1808 1.8494 -38865.3228 4432.3272 0.0000 1.2247 7987.4014 -21300.2644 297.6043 -29287.6659 -21227.8507 300.0475 -166.7089 446.7401 85982.2887 22.6280 22.5727
TCL: Running FEP window  11: Lambda1 0.96   Lambda2 0.956  [dLambda -0.0040000000000000036]
TCL: Setting parameter firsttimestep to 0
TCL: Setting parameter alchLambda to 0.96
Info: NONBONDED TABLE R-SQUARED SPACING: 0.0625
Info: NONBONDED TABLE SIZE: 769 POINTS
TCL: Setting parameter alchLambda2 to 0.956
Info: NONBONDED TABLE R-SQUARED SPACING: 0.0625
Info: NONBONDED TABLE SIZE: 769 POINTS
TCL: Running for 20000 steps
ETITLE: TS BOND ANGLE DIHED IMPRP ELECT VDW BOUNDARY MISC KINETIC TOTAL TEMP POTENTIAL TOTAL3 TEMPAVG PRESSURE GPRESSURE VOLUME PRESSAVG GPRESSAVG
ENERGY: 0 3116.0255 1802.0493 224.1808 1.8494 -38863.8524 4432.1218 0.0000 1.2247 7987.4014 -21298.9994 297.6043 -29286.4009 -21225.6262 297.6043 -166.9877 446.4685 85982.2887 -166.9877 446.4685
ENERGY: 10000 3051.0664 1771.5044 226.0681 2.6845 -38808.7054 4276.8681 0.0000 2.2274 7966.3282 -21511.9583 296.8191 -29478.2866 -21436.6637 299.2996 51.1781 49.4727 85982.2887 67.1088 67.1712
ENERGY: 20000 3063.8390 1790.3902 226.4629 0.9915 -38222.1637 4038.4407 0.0000 3.2484 7936.2125 -21162.5785 295.6970 -29098.7910 -21091.3708 299.1377 -199.8640 -215.4253 85982.2887 30.3913 30.1563
TCL: Running FEP window  12: Lambda1 0.956  Lambda2 0.952  [dLambda -0.0040000000000000036]
TCL: Setting parameter firsttimestep to 0
TCL: Setting parameter alchLambda to 0.956
Info: NONBONDED TABLE R-SQUARED SPACING: 0.0625
Info: NONBONDED TABLE SIZE: 769 POINTS
TCL: Setting parameter alchLambda2 to 0.952
Info: NONBONDED TABLE R-SQUARED SPACING: 0.0625
Info: NONBONDED TABLE SIZE: 769 POINTS
TCL: Running for 20000 steps
ETITLE: TS BOND ANGLE DIHED IMPRP ELECT VDW BOUNDARY MISC KINETIC TOTAL TEMP POTENTIAL TOTAL3 TEMPAVG PRESSURE GPRESSURE VOLUME PRESSAVG GPRESSAVG
ENERGY: 0 3063.8390 1790.3902 226.4629 0.9915 -38220.7282 4038.2885 0.0000 3.2484 7936.2125 -21161.2952 295.6970 -29097.5076 -21087.7603 295.6970 -200.8053 -215.6922 85982.2887 -200.8053 -215.6922
ENERGY: 10000 3097.7143 1873.9249 215.9587 0.7364 -38481.1104 4076.3592 0.0000 2.7367 7974.4612 -21239.2189 297.1221 -29213.6801 -21166.4621 298.9617 -697.4816 -330.4999 85982.2887 47.1665 47.1635
ENERGY: 20000 3018.8955 1757.5702 223.0598 0.7746 -38572.5521 4209.2255 0.0000 1.4481 8090.4242 -21271.1543 301.4428 -29361.5785 -21198.1569 299.3915 157.9759 39.1265 85982.2887 48.1533 48.1515
TCL: Running FEP window  13: Lambda1 0.952  Lambda2 0.948  [dLambda -0.0040000000000000036]
TCL: Setting parameter firsttimestep to 0
TCL: Setting parameter alchLambda to 0.952
Info: NONBONDED TABLE R-SQUARED SPACING: 0.0625
Info: NONBONDED TABLE SIZE: 769 POINTS
TCL: Setting parameter alchLambda2 to 0.948
Info: NONBONDED TABLE R-SQUARED SPACING: 0.0625
Info: NONBONDED TABLE SIZE: 769 POINTS
TCL: Running for 20000 steps
ETITLE: TS BOND ANGLE DIHED IMPRP ELECT VDW BOUNDARY MISC KINETIC TOTAL TEMP POTENTIAL TOTAL3 TEMPAVG PRESSURE GPRESSURE VOLUME PRESSAVG GPRESSAVG
ENERGY: 0 3018.8955 1757.5702 223.0598 0.7746 -38571.1968 4209.0443 0.0000 1.4481 8090.4242 -21269.9802 301.4428 -29360.4044 -21193.4361 301.4428 156.3072 38.5088 85982.2887 156.3072 38.5088
ENERGY: 10000 3075.3751 1818.3519 221.1711 0.6148 -38607.0061 4240.9876 0.0000 2.1544 7920.6244 -21327.7269 295.1162 -29248.3513 -21253.4111 297.0455 249.3940 276.7659 85982.2887 71.9942 72.0369
ENERGY: 20000 3094.4343 1821.8349 221.9317 2.5958 -38578.0814 4155.8659 0.0000 0.7244 8079.9443 -21200.7500 301.0523 -29280.6943 -21119.3907 298.5361 -845.1171 -188.6513 85982.2887 51.3082 51.1843
TCL: Running FEP window  14: Lambda1 0.948  Lambda2 0.944  [dLambda -0.0040000000000000036]
TCL: Setting parameter firsttimestep to 0
TCL: Setting parameter alchLambda to 0.948
Info: NONBONDED TABLE R-SQUARED SPACING: 0.0625
Info: NONBONDED TABLE SIZE: 769 POINTS
TCL: Setting parameter alchLambda2 to 0.944
Info: NONBONDED TABLE R-SQUARED SPACING: 0.0625
Info: NONBONDED TABLE SIZE: 769 POINTS
TCL: Running for 20000 steps
ETITLE: TS BOND ANGLE DIHED IMPRP ELECT VDW BOUNDARY MISC KINETIC TOTAL TEMP POTENTIAL TOTAL3 TEMPAVG PRESSURE GPRESSURE VOLUME PRESSAVG GPRESSAVG
ENERGY: 0 3094.4343 1821.8349 221.9317 2.5958 -38576.5594 4155.6969 0.0000 0.7244 8079.9443 -21199.3969 301.0523 -29279.3413 -21120.7044 301.0523 -843.3632 -186.4124 85982.2887 -843.3632 -186.4124
ENERGY: 10000 3082.9636 1808.2241 227.2705 1.7508 -38595.7976 4303.6349 0.0000 1.3386 7990.8180 -21179.7970 297.7316 -29170.6151 -21100.4390 299.8243 -35.2554 413.7119 85982.2887 59.0729 58.9155
ENERGY: 20000 3186.7384 1816.8276 229.6028 1.3908 -38829.9872 4295.0503 0.0000 1.6929 7985.1535 -21313.5308 297.5205 -29298.6843 -21235.9770 298.7567 -939.9231 209.3280 85982.2887 19.6876 19.8673
TCL: Running FEP window  15: Lambda1 0.944  Lambda2 0.94   [dLambda -0.0040000000000000036]
TCL: Setting parameter firsttimestep to 0
TCL: Setting parameter alchLambda to 0.944
Info: NONBONDED TABLE R-SQUARED SPACING: 0.0625
Info: NONBONDED TABLE SIZE: 769 POINTS
TCL: Setting parameter alchLambda2 to 0.94
Info: NONBONDED TABLE R-SQUARED SPACING: 0.0625
Info: NONBONDED TABLE SIZE: 769 POINTS
TCL: Running for 20000 steps
ETITLE: TS BOND ANGLE DIHED IMPRP ELECT VDW BOUNDARY MISC KINETIC TOTAL TEMP POTENTIAL TOTAL3 TEMPAVG PRESSURE GPRESSURE VOLUME PRESSAVG GPRESSAVG
ENERGY: 0 3186.7384 1816.8276 229.6028 1.3908 -38828.6237 4294.8382 0.0000 1.6929 7985.1535 -21312.3794 297.5205 -29297.5329 -21236.2969 297.5205 -938.9334 210.7426 85982.2887 -938.9334 210.7426
ENERGY: 10000 3067.4684 1777.4029 229.8052 2.0961 -38521.5937 4096.2151 0.0000 2.4435 8013.8885 -21332.2741 298.5912 -29346.1626 -21250.0472 298.7655 -1181.6655 -281.3479 85982.2887 11.4977 11.5673
ENERGY: 20000 3033.9751 1794.8902 230.7526 2.9053 -38607.6451 4202.5672 0.0000 2.3267 8145.7244 -21194.5036 303.5033 -29340.2279 -21110.8303 299.7684 -302.4371 41.1052 85982.2887 32.8497 32.6468
TCL: Running FEP window  16: Lambda1 0.94   Lambda2 0.9359999999999999 [dLambda -0.0040000000000000036]
TCL: Setting parameter firsttimestep to 0
TCL: Setting parameter alchLambda to 0.94
Info: NONBONDED TABLE R-SQUARED SPACING: 0.0625
Info: NONBONDED TABLE SIZE: 769 POINTS
TCL: Setting parameter alchLambda2 to 0.9359999999999999
Info: NONBONDED TABLE R-SQUARED SPACING: 0.0625
Info: NONBONDED TABLE SIZE: 769 POINTS
TCL: Running for 20000 steps
ETITLE: TS BOND ANGLE DIHED IMPRP ELECT VDW BOUNDARY MISC KINETIC TOTAL TEMP POTENTIAL TOTAL3 TEMPAVG PRESSURE GPRESSURE VOLUME PRESSAVG GPRESSAVG
ENERGY: 0 3033.9751 1794.8902 230.7526 2.9053 -38606.1579 4202.3539 0.0000 2.3267 8145.7244 -21193.2296 303.5033 -29338.9540 -21113.4580 303.5033 -300.0896 44.1266 85982.2887 -300.0896 44.1266
ENERGY: 10000 3000.2818 1781.2727 224.2489 1.0993 -38465.1736 4107.9901 0.0000 2.7952 8017.6438 -21329.8419 298.7311 -29347.4857 -21253.1102 299.3700 445.1922 -48.8555 85982.2887 31.0322 31.0138
ENERGY: 20000 2989.8093 1795.7579 224.5264 1.0506 -38525.7467 4153.6726 0.0000 2.6480 7963.6587 -21394.6233 296.7196 -29358.2819 -21321.1360 299.1393 735.4451 -13.4368 85982.2887 8.0582 7.8998
TCL: Running FEP window  17: Lambda1 0.9359999999999999 Lambda2 0.9319999999999999 [dLambda -0.0040000000000000036]
TCL: Setting parameter firsttimestep to 0
TCL: Setting parameter alchLambda to 0.9359999999999999
Info: NONBONDED TABLE R-SQUARED SPACING: 0.0625
Info: NONBONDED TABLE SIZE: 769 POINTS
TCL: Setting parameter alchLambda2 to 0.9319999999999999
Info: NONBONDED TABLE R-SQUARED SPACING: 0.0625
Info: NONBONDED TABLE SIZE: 769 POINTS
TCL: Running for 20000 steps
ETITLE: TS BOND ANGLE DIHED IMPRP ELECT VDW BOUNDARY MISC KINETIC TOTAL TEMP POTENTIAL TOTAL3 TEMPAVG PRESSURE GPRESSURE VOLUME PRESSAVG GPRESSAVG
ENERGY: 0 2989.8093 1795.7579 224.5264 1.0506 -38524.4154 4153.4711 0.0000 2.6480 7963.6587 -21393.4935 296.7196 -29357.1521 -21320.9654 296.7196 736.1696 -12.6172 85982.2887 736.1696 -12.6172
ENERGY: 10000 3132.0536 1832.1674 221.8016 0.1887 -38532.2495 4142.6019 0.0000 0.6867 8092.3959 -21110.3538 301.5163 -29202.7497 -21038.0189 300.2885 -274.4162 -55.3989 85982.2887 94.6450 94.9652
ENERGY: 20000 3119.5345 1816.9277 227.6611 1.2091 -38645.3660 4175.4489 0.0000 0.9465 7977.0483 -21326.5898 297.2185 -29303.6382 -21258.5013 300.3492 -332.8502 -121.7994 85982.2887 10.3976 10.5362
TCL: Running FEP window  18: Lambda1 0.9319999999999999 Lambda2 0.9279999999999999 [dLambda -0.0040000000000000036]
TCL: Setting parameter firsttimestep to 0
TCL: Setting parameter alchLambda to 0.9319999999999999
Info: NONBONDED TABLE R-SQUARED SPACING: 0.0625
Info: NONBONDED TABLE SIZE: 769 POINTS
TCL: Setting parameter alchLambda2 to 0.9279999999999999
Info: NONBONDED TABLE R-SQUARED SPACING: 0.0625
Info: NONBONDED TABLE SIZE: 769 POINTS
TCL: Running for 20000 steps
ETITLE: TS BOND ANGLE DIHED IMPRP ELECT VDW BOUNDARY MISC KINETIC TOTAL TEMP POTENTIAL TOTAL3 TEMPAVG PRESSURE GPRESSURE VOLUME PRESSAVG GPRESSAVG
ENERGY: 0 3119.5345 1816.9277 227.6611 1.2091 -38643.9651 4175.2975 0.0000 0.9465 7977.0483 -21325.3404 297.2185 -29302.3888 -21255.2366 297.2185 -333.6031 -122.1258 85982.2887 -333.6031 -122.1258
ENERGY: 10000 3060.4954 1818.0671 221.5610 0.7852 -38453.2233 4157.2110 0.0000 2.5227 7858.6229 -21333.9580 292.8061 -29192.5809 -21264.2151 298.1731 -177.2992 -124.0571 85982.2887 92.9085 92.9988
ENERGY: 20000 3131.8135 1793.6016 221.9305 0.7499 -38662.2733 4320.8042 0.0000 1.4920 8060.0974 -21131.7842 300.3129 -29191.8816 -21057.1404 299.0834 -213.0811 414.6407 85982.2887 20.2026 20.4518
TCL: Running FEP window  19: Lambda1 0.9279999999999999 Lambda2 0.9239999999999999 [dLambda -0.0040000000000000036]
TCL: Setting parameter firsttimestep to 0
TCL: Setting parameter alchLambda to 0.9279999999999999
Info: NONBONDED TABLE R-SQUARED SPACING: 0.0625
Info: NONBONDED TABLE SIZE: 769 POINTS
TCL: Setting parameter alchLambda2 to 0.9239999999999999
Info: NONBONDED TABLE R-SQUARED SPACING: 0.0625
Info: NONBONDED TABLE SIZE: 769 POINTS
TCL: Running for 20000 steps
ETITLE: TS BOND ANGLE DIHED IMPRP ELECT VDW BOUNDARY MISC KINETIC TOTAL TEMP POTENTIAL TOTAL3 TEMPAVG PRESSURE GPRESSURE VOLUME PRESSAVG GPRESSAVG
ENERGY: 0 3131.8135 1793.6016 221.9305 0.7499 -38660.8627 4320.6109 0.0000 1.4920 8060.0974 -21130.5668 300.3129 -29190.6643 -21051.5811 300.3129 -215.1581 412.8401 85982.2887 -215.1581 412.8401
ENERGY: 10000 3031.3334 1782.4636 230.0787 1.1071 -38703.4739 4306.2743 0.0000 2.3812 7984.5695 -21365.2661 297.4988 -29349.8356 -21291.6092 300.1789 812.3958 451.1073 85982.2887 32.9586 33.0234
ENERGY: 20000 3042.6553 1768.7324 227.4401 1.5745 -38440.7659 4137.5333 0.0000 2.2459 8031.9013 -21228.6832 299.2623 -29260.5845 -21153.0903 299.3047 30.8541 -36.4326 85982.2887 23.0857 22.9136
TCL: Running FEP window  20: Lambda1 0.9239999999999999 Lambda2 0.9199999999999999 [dLambda -0.0040000000000000036]
TCL: Setting parameter firsttimestep to 0
TCL: Setting parameter alchLambda to 0.9239999999999999
Info: NONBONDED TABLE R-SQUARED SPACING: 0.0625
Info: NONBONDED TABLE SIZE: 769 POINTS
TCL: Setting parameter alchLambda2 to 0.9199999999999999
Info: NONBONDED TABLE R-SQUARED SPACING: 0.0625
Info: NONBONDED TABLE SIZE: 769 POINTS
TCL: Running for 20000 steps
ETITLE: TS BOND ANGLE DIHED IMPRP ELECT VDW BOUNDARY MISC KINETIC TOTAL TEMP POTENTIAL TOTAL3 TEMPAVG PRESSURE GPRESSURE VOLUME PRESSAVG GPRESSAVG
ENERGY: 0 3042.6553 1768.7324 227.4401 1.5745 -38439.4675 4137.3086 0.0000 2.2459 8031.9013 -21227.6095 299.2623 -29259.5108 -21151.2205 299.2623 30.5688 -36.2773 85982.2887 30.5688 -36.2773
ENERGY: 10000 3062.1507 1772.6541 227.2099 0.4512 -38467.8278 4169.4329 0.0000 2.0865 7985.4900 -21248.3526 297.5330 -29233.8426 -21174.7284 298.9274 -306.9751 -5.2735 85982.2887 98.1619 97.9962
ENERGY: 20000 3022.4957 1723.4704 225.0440 2.1001 -38405.6365 4211.8020 0.0000 1.0964 8091.3286 -21128.2993 301.4765 -29219.6279 -21051.3863 298.3087 547.6373 180.9915 85982.2887 -22.1966 -22.2574
TCL: Running FEP window  21: Lambda1 0.9199999999999999 Lambda2 0.9159999999999999 [dLambda -0.0040000000000000036]
TCL: Setting parameter firsttimestep to 0
TCL: Setting parameter alchLambda to 0.9199999999999999
Info: NONBONDED TABLE R-SQUARED SPACING: 0.0625
Info: NONBONDED TABLE SIZE: 769 POINTS
TCL: Setting parameter alchLambda2 to 0.9159999999999999
Info: NONBONDED TABLE R-SQUARED SPACING: 0.0625
Info: NONBONDED TABLE SIZE: 769 POINTS
TCL: Running for 20000 steps
ETITLE: TS BOND ANGLE DIHED IMPRP ELECT VDW BOUNDARY MISC KINETIC TOTAL TEMP POTENTIAL TOTAL3 TEMPAVG PRESSURE GPRESSURE VOLUME PRESSAVG GPRESSAVG
ENERGY: 0 3022.4957 1723.4704 225.0440 2.1001 -38404.2083 4211.6050 0.0000 1.0964 8091.3286 -21127.0681 301.4765 -29218.3967 -21054.0840 301.4765 550.0053 183.7136 85982.2887 550.0053 183.7136
ENERGY: 10000 3087.4031 1872.2433 224.1451 1.1308 -38581.7590 4148.6126 0.0000 0.9986 8042.5567 -21204.6687 299.6593 -29247.2254 -21136.6764 298.5400 -364.8189 -271.8493 85982.2887 20.8268 20.8771
ENERGY: 20000 3034.8242 1808.4729 221.1393 0.5652 -38792.3012 4269.0804 0.0000 1.9095 8009.7486 -21446.5611 298.4369 -29456.3096 -21370.8302 298.5821 489.7260 90.5130 85982.2887 -6.9563 -7.0258
TCL: Running FEP window  22: Lambda1 0.9159999999999999 Lambda2 0.9119999999999999 [dLambda -0.0040000000000000036]
TCL: Setting parameter firsttimestep to 0
TCL: Setting parameter alchLambda to 0.9159999999999999
Info: NONBONDED TABLE R-SQUARED SPACING: 0.0625
Info: NONBONDED TABLE SIZE: 769 POINTS
TCL: Setting parameter alchLambda2 to 0.9119999999999999
Info: NONBONDED TABLE R-SQUARED SPACING: 0.0625
Info: NONBONDED TABLE SIZE: 769 POINTS
TCL: Running for 20000 steps
ETITLE: TS BOND ANGLE DIHED IMPRP ELECT VDW BOUNDARY MISC KINETIC TOTAL TEMP POTENTIAL TOTAL3 TEMPAVG PRESSURE GPRESSURE VOLUME PRESSAVG GPRESSAVG
ENERGY: 0 3034.8242 1808.4729 221.1393 0.5652 -38790.9243 4268.9071 0.0000 1.9095 8009.7486 -21445.3575 298.4369 -29455.1061 -21371.0302 298.4369 490.7857 91.8486 85982.2887 490.7857 91.8486
ENERGY: 10000 3034.9871 1823.5600 221.7676 1.1477 -38403.8633 4112.7742 0.0000 2.2421 7990.9951 -21216.3895 297.7382 -29207.3845 -21142.2959 298.0807 92.5849 -267.4564 85982.2887 -10.4000 -10.5202
ENERGY: 20000 3002.8096 1841.0831 221.3760 1.3552 -38737.3779 4320.0265 0.0000 1.5840 8024.5532 -21324.5904 298.9885 -29349.1436 -21252.0169 298.7388 685.4182 386.8102 85982.2887 69.2382 69.4835
TCL: Running FEP window  23: Lambda1 0.9119999999999999 Lambda2 0.9079999999999999 [dLambda -0.0040000000000000036]
TCL: Setting parameter firsttimestep to 0
TCL: Setting parameter alchLambda to 0.9119999999999999
Info: NONBONDED TABLE R-SQUARED SPACING: 0.0625
Info: NONBONDED TABLE SIZE: 769 POINTS
TCL: Setting parameter alchLambda2 to 0.9079999999999999
Info: NONBONDED TABLE R-SQUARED SPACING: 0.0625
Info: NONBONDED TABLE SIZE: 769 POINTS
TCL: Running for 20000 steps
ETITLE: TS BOND ANGLE DIHED IMPRP ELECT VDW BOUNDARY MISC KINETIC TOTAL TEMP POTENTIAL TOTAL3 TEMPAVG PRESSURE GPRESSURE VOLUME PRESSAVG GPRESSAVG
ENERGY: 0 3002.8096 1841.0831 221.3760 1.3552 -38736.0309 4319.8245 0.0000 1.5840 8024.5532 -21323.4453 298.9885 -29347.9985 -21248.5130 298.9885 684.3741 387.2574 85982.2887 684.3741 387.2574
ENERGY: 10000 3102.4860 1754.3393 227.0527 1.4523 -38585.8248 4253.2185 0.0000 3.9267 8000.1044 -21243.2449 298.0776 -29243.3493 -21166.9812 297.9602 21.8550 114.7944 85982.2887 62.2202 62.1705
ENERGY: 20000 2974.4727 1786.4326 226.7309 1.9788 -38604.6701 4177.9488 0.0000 1.8203 8071.1970 -21364.0889 300.7264 -29435.2860 -21286.7367 298.8627 28.3808 -66.0638 85982.2887 20.1541 20.1722
TCL: Running FEP window  24: Lambda1 0.9079999999999999 Lambda2 0.9039999999999999 [dLambda -0.0040000000000000036]
TCL: Setting parameter firsttimestep to 0
TCL: Setting parameter alchLambda to 0.9079999999999999
Info: NONBONDED TABLE R-SQUARED SPACING: 0.0625
Info: NONBONDED TABLE SIZE: 769 POINTS
TCL: Setting parameter alchLambda2 to 0.9039999999999999
Info: NONBONDED TABLE R-SQUARED SPACING: 0.0625
Info: NONBONDED TABLE SIZE: 769 POINTS
TCL: Running for 20000 steps
ETITLE: TS BOND ANGLE DIHED IMPRP ELECT VDW BOUNDARY MISC KINETIC TOTAL TEMP POTENTIAL TOTAL3 TEMPAVG PRESSURE GPRESSURE VOLUME PRESSAVG GPRESSAVG
ENERGY: 0 2974.4727 1786.4326 226.7309 1.9788 -38603.3662 4177.7406 0.0000 1.8203 8071.1970 -21362.9933 300.7264 -29434.1903 -21284.0315 300.7264 27.7408 -66.9167 85982.2887 27.7408 -66.9167
ENERGY: 10000 2983.1491 1737.7864 226.3034 2.9661 -38373.4992 4141.9473 0.0000 1.3957 7930.5771 -21349.3741 295.4870 -29279.9512 -21277.3517 298.8570 1150.8186 57.1893 85982.2887 39.4130 39.2837
ENERGY: 20000 3117.5538 1836.6267 225.8130 0.8461 -38519.1859 4138.2338 0.0000 2.3403 8056.0700 -21141.7022 300.1628 -29197.7722 -21068.7833 297.3418 -937.6010 -178.2401 85982.2887 -35.7553 -35.5970
TCL: Running FEP window  25: Lambda1 0.9039999999999999 Lambda2 0.8999999999999999 [dLambda -0.0040000000000000036]
TCL: Setting parameter firsttimestep to 0
TCL: Setting parameter alchLambda to 0.9039999999999999
Info: NONBONDED TABLE R-SQUARED SPACING: 0.0625
Info: NONBONDED TABLE SIZE: 769 POINTS
TCL: Setting parameter alchLambda2 to 0.8999999999999999
Info: NONBONDED TABLE R-SQUARED SPACING: 0.0625
Info: NONBONDED TABLE SIZE: 769 POINTS
TCL: Running for 20000 steps
ETITLE: TS BOND ANGLE DIHED IMPRP ELECT VDW BOUNDARY MISC KINETIC TOTAL TEMP POTENTIAL TOTAL3 TEMPAVG PRESSURE GPRESSURE VOLUME PRESSAVG GPRESSAVG
ENERGY: 0 3117.5538 1836.6267 225.8130 0.8461 -38517.9214 4138.0242 0.0000 2.3403 8056.0700 -21140.6472 300.1628 -29196.7173 -21065.5187 300.1628 -938.5582 -178.7850 85982.2887 -938.5582 -178.7850
ENERGY: 10000 3044.1463 1804.4888 225.7683 3.2408 -38390.1912 4116.4914 0.0000 2.3589 8002.8734 -21190.8232 298.1807 -29193.6966 -21115.0357 300.2728 -5.5132 -174.4915 85982.2887 51.7509 51.7574
ENERGY: 20000 2997.7798 1842.9976 218.8120 1.9281 -38795.5687 4295.2438 0.0000 3.7740 8059.8997 -21375.1338 300.3055 -29435.0335 -21307.1294 299.0660 408.8711 170.7920 85982.2887 -2.8777 -3.0209
TCL: Running FEP window  26: Lambda1 0.8999999999999999 Lambda2 0.8959999999999999 [dLambda -0.0040000000000000036]
TCL: Setting parameter firsttimestep to 0
TCL: Setting parameter alchLambda to 0.8999999999999999
Info: NONBONDED TABLE R-SQUARED SPACING: 0.0625
Info: NONBONDED TABLE SIZE: 769 POINTS
TCL: Setting parameter alchLambda2 to 0.8959999999999999
Info: NONBONDED TABLE R-SQUARED SPACING: 0.0625
Info: NONBONDED TABLE SIZE: 769 POINTS
TCL: Running for 20000 steps
ETITLE: TS BOND ANGLE DIHED IMPRP ELECT VDW BOUNDARY MISC KINETIC TOTAL TEMP POTENTIAL TOTAL3 TEMPAVG PRESSURE GPRESSURE VOLUME PRESSAVG GPRESSAVG
ENERGY: 0 2997.7798 1842.9976 218.8120 1.9281 -38794.2745 4295.0531 0.0000 3.7740 8059.8997 -21374.0302 300.3055 -29433.9299 -21298.6547 300.3055 405.1615 168.2625 85982.2887 405.1615 168.2625
ENERGY: 10000 3099.8291 1823.8853 222.6330 0.1900 -38511.6371 4246.0922 0.0000 1.4492 7890.2946 -21227.2636 293.9861 -29117.5582 -21151.4490 299.3524 -280.5698 244.4364 85982.2887 82.1912 82.0825
ENERGY: 20000 3037.5202 1765.5367 221.4985 1.6982 -38563.4755 4268.1428 0.0000 1.9575 8065.5039 -21201.6176 300.5143 -29267.1215 -21123.8840 297.5910 419.7536 188.0241 85982.2887 69.6149 69.7050
TCL: Running FEP window  27: Lambda1 0.8959999999999999 Lambda2 0.8919999999999999 [dLambda -0.0040000000000000036]
TCL: Setting parameter firsttimestep to 0
TCL: Setting parameter alchLambda to 0.8959999999999999
Info: NONBONDED TABLE R-SQUARED SPACING: 0.0625
Info: NONBONDED TABLE SIZE: 769 POINTS
TCL: Setting parameter alchLambda2 to 0.8919999999999999
Info: NONBONDED TABLE R-SQUARED SPACING: 0.0625
Info: NONBONDED TABLE SIZE: 769 POINTS
TCL: Running for 20000 steps
ETITLE: TS BOND ANGLE DIHED IMPRP ELECT VDW BOUNDARY MISC KINETIC TOTAL TEMP POTENTIAL TOTAL3 TEMPAVG PRESSURE GPRESSURE VOLUME PRESSAVG GPRESSAVG
ENERGY: 0 3037.5202 1765.5367 221.4985 1.6982 -38562.1140 4267.9992 0.0000 1.9575 8065.5039 -21200.3998 300.5143 -29265.9037 -21127.0149 300.5143 422.4719 190.9771 85982.2887 422.4719 190.9771
ENERGY: 10000 3031.5129 1823.7395 227.3157 1.0858 -38367.2587 4069.1315 0.0000 0.5636 8007.9061 -21206.0037 298.3683 -29213.9097 -21131.3333 299.0783 -293.4454 -286.3139 85982.2887 45.0897 44.9731
ENERGY: 20000 3026.8502 1721.6583 224.4013 0.6282 -38365.6255 4246.1589 0.0000 1.4880 7987.2899 -21157.1507 297.6001 -29144.4406 -21079.8660 299.6126 687.8779 366.1612 85982.2887 -69.2199 -69.1403
TCL: Running FEP window  28: Lambda1 0.8919999999999999 Lambda2 0.8879999999999999 [dLambda -0.0040000000000000036]
TCL: Setting parameter firsttimestep to 0
TCL: Setting parameter alchLambda to 0.8919999999999999
Info: NONBONDED TABLE R-SQUARED SPACING: 0.0625
Info: NONBONDED TABLE SIZE: 769 POINTS
TCL: Setting parameter alchLambda2 to 0.8879999999999999
Info: NONBONDED TABLE R-SQUARED SPACING: 0.0625
Info: NONBONDED TABLE SIZE: 769 POINTS
TCL: Running for 20000 steps
ETITLE: TS BOND ANGLE DIHED IMPRP ELECT VDW BOUNDARY MISC KINETIC TOTAL TEMP POTENTIAL TOTAL3 TEMPAVG PRESSURE GPRESSURE VOLUME PRESSAVG GPRESSAVG
ENERGY: 0 3026.8502 1721.6583 224.4013 0.6282 -38364.3158 4245.9495 0.0000 1.4880 7987.2899 -21156.0504 297.6001 -29143.3403 -21079.3625 297.6001 688.4383 366.3129 85982.2887 688.4383 366.3129
ENERGY: 10000 3137.7036 1807.1747 227.2420 0.8312 -38673.7563 4216.5726 0.0000 3.1432 7992.6575 -21288.4316 297.8001 -29281.0890 -21216.3138 299.5727 -350.1070 -50.9989 85982.2887 2.9360 2.8060
ENERGY: 20000 3004.6838 1794.6813 218.5295 1.2332 -38510.0684 4185.5722 0.0000 0.5634 7935.9222 -21368.8828 295.6862 -29304.8051 -21288.4613 298.3239 349.5710 60.8138 85982.2887 42.0881 42.1320
TCL: Running FEP window  29: Lambda1 0.8879999999999999 Lambda2 0.8839999999999999 [dLambda -0.0040000000000000036]
TCL: Setting parameter firsttimestep to 0
TCL: Setting parameter alchLambda to 0.8879999999999999
Info: NONBONDED TABLE R-SQUARED SPACING: 0.0625
Info: NONBONDED TABLE SIZE: 769 POINTS
TCL: Setting parameter alchLambda2 to 0.8839999999999999
Info: NONBONDED TABLE R-SQUARED SPACING: 0.0625
Info: NONBONDED TABLE SIZE: 769 POINTS
TCL: Running for 20000 steps
ETITLE: TS BOND ANGLE DIHED IMPRP ELECT VDW BOUNDARY MISC KINETIC TOTAL TEMP POTENTIAL TOTAL3 TEMPAVG PRESSURE GPRESSURE VOLUME PRESSAVG GPRESSAVG
ENERGY: 0 3004.6838 1794.6813 218.5295 1.2332 -38508.7460 4185.3917 0.0000 0.5634 7935.9222 -21367.7409 295.6862 -29303.6632 -21291.4578 295.6862 352.0738 62.9066 85982.2887 352.0738 62.9066
ENERGY: 10000 3117.3066 1738.7147 232.4972 0.8681 -38816.0109 4301.3801 0.0000 2.1319 8023.5147 -21399.5976 298.9498 -29423.1123 -21330.1669 299.1234 48.5168 303.0303 85982.2887 73.8969 73.7884
ENERGY: 20000 2963.6328 1881.5239 225.8152 0.9239 -38729.4155 4320.3426 0.0000 2.4140 7959.3382 -21375.4249 296.5587 -29334.7631 -21302.8597 299.5582 977.6681 277.6279 85982.2887 53.0710 52.8711
TCL: Running FEP window  30: Lambda1 0.8839999999999999 Lambda2 0.8799999999999999 [dLambda -0.0040000000000000036]
TCL: Setting parameter firsttimestep to 0
TCL: Setting parameter alchLambda to 0.8839999999999999
Info: NONBONDED TABLE R-SQUARED SPACING: 0.0625
Info: NONBONDED TABLE SIZE: 769 POINTS
TCL: Setting parameter alchLambda2 to 0.8799999999999999
Info: NONBONDED TABLE R-SQUARED SPACING: 0.0625
Info: NONBONDED TABLE SIZE: 769 POINTS
TCL: Running for 20000 steps
ETITLE: TS BOND ANGLE DIHED IMPRP ELECT VDW BOUNDARY MISC KINETIC TOTAL TEMP POTENTIAL TOTAL3 TEMPAVG PRESSURE GPRESSURE VOLUME PRESSAVG GPRESSAVG
ENERGY: 0 2963.6328 1881.5239 225.8152 0.9239 -38728.1802 4320.1585 0.0000 2.4140 7959.3382 -21374.3737 296.5587 -29333.7119 -21297.9294 296.5587 975.8357 275.9959 85982.2887 975.8357 275.9959
ENERGY: 10000 3110.6414 1743.9218 225.3634 1.7397 -38362.9540 4201.6702 0.0000 2.1407 7885.1010 -21192.3758 293.7926 -29077.4768 -21121.4923 298.5313 -162.8037 138.6732 85982.2887 44.9913 44.9825
ENERGY: 20000 3029.0239 1812.2875 220.3791 0.4649 -38833.3290 4345.4922 0.0000 0.9398 8015.6883 -21409.0534 298.6582 -29424.7416 -21336.4734 297.8448 196.7218 354.1950 85982.2887 -32.0100 -31.7610
TCL: Running FEP window  31: Lambda1 0.8799999999999999 Lambda2 0.8759999999999999 [dLambda -0.0040000000000000036]
TCL: Setting parameter firsttimestep to 0
TCL: Setting parameter alchLambda to 0.8799999999999999
Info: NONBONDED TABLE R-SQUARED SPACING: 0.0625
Info: NONBONDED TABLE SIZE: 769 POINTS
TCL: Setting parameter alchLambda2 to 0.8759999999999999
Info: NONBONDED TABLE R-SQUARED SPACING: 0.0625
Info: NONBONDED TABLE SIZE: 769 POINTS
TCL: Running for 20000 steps
ETITLE: TS BOND ANGLE DIHED IMPRP ELECT VDW BOUNDARY MISC KINETIC TOTAL TEMP POTENTIAL TOTAL3 TEMPAVG PRESSURE GPRESSURE VOLUME PRESSAVG GPRESSAVG
ENERGY: 0 3029.0239 1812.2875 220.3791 0.4649 -38832.1112 4345.3302 0.0000 0.9398 8015.6883 -21407.9976 298.6582 -29423.6859 -21332.7002 298.6582 195.5711 353.7100 85982.2887 195.5711 353.7100
ENERGY: 10000 3070.7574 1807.9672 224.2945 0.9373 -38564.6105 4187.7974 0.0000 1.1178 8000.6608 -21271.0781 298.0983 -29271.7389 -21196.5147 297.9328 479.3388 11.9588 85982.2887 1.2459 1.1069
ENERGY: 20000 3011.1280 1845.6170 225.7437 0.6800 -38488.7965 4202.6040 0.0000 1.9346 7958.8317 -21242.2575 296.5398 -29201.0892 -21167.8710 298.6847 319.9671 92.0425 85982.2887 -5.6439 -5.4538
TCL: Running FEP window  32: Lambda1 0.8759999999999999 Lambda2 0.8719999999999999 [dLambda -0.0040000000000000036]
TCL: Setting parameter firsttimestep to 0
TCL: Setting parameter alchLambda to 0.8759999999999999
Info: NONBONDED TABLE R-SQUARED SPACING: 0.0625
Info: NONBONDED TABLE SIZE: 769 POINTS
TCL: Setting parameter alchLambda2 to 0.8719999999999999
Info: NONBONDED TABLE R-SQUARED SPACING: 0.0625
Info: NONBONDED TABLE SIZE: 769 POINTS
TCL: Running for 20000 steps
ETITLE: TS BOND ANGLE DIHED IMPRP ELECT VDW BOUNDARY MISC KINETIC TOTAL TEMP POTENTIAL TOTAL3 TEMPAVG PRESSURE GPRESSURE VOLUME PRESSAVG GPRESSAVG
ENERGY: 0 3011.1280 1845.6170 225.7437 0.6800 -38487.5913 4202.4206 0.0000 1.9346 7958.8317 -21241.2357 296.5398 -29200.0674 -21166.1049 296.5398 319.8220 91.6976 85982.2887 319.8220 91.6976
ENERGY: 10000 3049.7632 1816.9484 225.8273 0.8481 -38483.3473 4126.4965 0.0000 1.3785 7957.6326 -21304.4528 296.4951 -29262.0854 -21228.3192 298.5130 -225.1301 -135.9090 85982.2887 -6.7510 -6.3471
ENERGY: 20000 3064.7760 1827.5172 223.8337 2.7869 -38457.7405 4054.2771 0.0000 1.7920 8062.0397 -21220.7179 300.3852 -29282.7577 -21142.7986 299.8757 -1011.6988 -435.1668 85982.2887 29.7045 29.4687
TCL: Running FEP window  33: Lambda1 0.8719999999999999 Lambda2 0.8679999999999999 [dLambda -0.0040000000000000036]
TCL: Setting parameter firsttimestep to 0
TCL: Setting parameter alchLambda to 0.8719999999999999
Info: NONBONDED TABLE R-SQUARED SPACING: 0.0625
Info: NONBONDED TABLE SIZE: 769 POINTS
TCL: Setting parameter alchLambda2 to 0.8679999999999999
Info: NONBONDED TABLE R-SQUARED SPACING: 0.0625
Info: NONBONDED TABLE SIZE: 769 POINTS
TCL: Running for 20000 steps
ETITLE: TS BOND ANGLE DIHED IMPRP ELECT VDW BOUNDARY MISC KINETIC TOTAL TEMP POTENTIAL TOTAL3 TEMPAVG PRESSURE GPRESSURE VOLUME PRESSAVG GPRESSAVG
ENERGY: 0 3064.7760 1827.5172 223.8337 2.7869 -38456.7099 4054.1268 0.0000 1.7920 8062.0397 -21219.8375 300.3852 -29281.8773 -21143.4311 300.3852 -1010.5776 -433.2922 85982.2887 -1010.5776 -433.2922
ENERGY: 10000 3038.3072 1758.3359 222.8537 3.7735 -38550.4283 4217.7266 0.0000 1.3574 8005.2933 -21302.7807 298.2709 -29308.0740 -21226.1855 298.9698 -188.9374 102.6640 85982.2887 7.5105 7.4135
ENERGY: 20000 3075.4368 1817.6926 223.9402 1.6895 -38550.5007 4169.9106 0.0000 1.6125 7969.7100 -21290.5085 296.9451 -29260.2185 -21217.4933 299.7519 -636.3041 -119.0204 85982.2887 -47.1537 -47.2717
TCL: Running FEP window  34: Lambda1 0.8679999999999999 Lambda2 0.8639999999999999 [dLambda -0.0040000000000000036]
TCL: Setting parameter firsttimestep to 0
TCL: Setting parameter alchLambda to 0.8679999999999999
Info: NONBONDED TABLE R-SQUARED SPACING: 0.0625
Info: NONBONDED TABLE SIZE: 769 POINTS
TCL: Setting parameter alchLambda2 to 0.8639999999999999
Info: NONBONDED TABLE R-SQUARED SPACING: 0.0625
Info: NONBONDED TABLE SIZE: 769 POINTS
TCL: Running for 20000 steps
ETITLE: TS BOND ANGLE DIHED IMPRP ELECT VDW BOUNDARY MISC KINETIC TOTAL TEMP POTENTIAL TOTAL3 TEMPAVG PRESSURE GPRESSURE VOLUME PRESSAVG GPRESSAVG
ENERGY: 0 3075.4368 1817.6926 223.9402 1.6895 -38549.3454 4169.7842 0.0000 1.6125 7969.7100 -21289.4796 296.9451 -29259.1896 -21215.9026 296.9451 -636.2300 -118.1849 85982.2887 -636.2300 -118.1849
ENERGY: 10000 3119.9027 1796.6652 222.2421 0.7317 -38491.6086 4129.4089 0.0000 1.6515 8085.8465 -21135.1600 301.2723 -29221.0065 -21058.5843 298.9504 -870.1900 -13.5551 85982.2887 -1.5011 -1.5288
ENERGY: 20000 3093.1390 1775.4078 222.8669 2.6748 -38734.1779 4309.8333 0.0000 4.3701 7988.1605 -21337.7255 297.6326 -29325.8861 -21265.1197 299.0191 311.0982 362.9419 85982.2887 74.3011 74.3058
TCL: Running FEP window  35: Lambda1 0.8639999999999999 Lambda2 0.8599999999999999 [dLambda -0.0040000000000000036]
TCL: Setting parameter firsttimestep to 0
TCL: Setting parameter alchLambda to 0.8639999999999999
Info: NONBONDED TABLE R-SQUARED SPACING: 0.0625
Info: NONBONDED TABLE SIZE: 769 POINTS
TCL: Setting parameter alchLambda2 to 0.8599999999999999
Info: NONBONDED TABLE R-SQUARED SPACING: 0.0625
Info: NONBONDED TABLE SIZE: 769 POINTS
TCL: Running for 20000 steps
ETITLE: TS BOND ANGLE DIHED IMPRP ELECT VDW BOUNDARY MISC KINETIC TOTAL TEMP POTENTIAL TOTAL3 TEMPAVG PRESSURE GPRESSURE VOLUME PRESSAVG GPRESSAVG
ENERGY: 0 3093.1390 1775.4078 222.8669 2.6748 -38733.1789 4309.6379 0.0000 4.3701 7988.1605 -21336.9219 297.6326 -29325.0825 -21263.8863 297.6326 311.0335 363.0940 85982.2887 311.0335 363.0940
ENERGY: 10000 3141.3569 1754.7012 220.4707 1.7422 -38776.9374 4303.4583 0.0000 1.9630 7948.3719 -21404.8731 296.1501 -29353.2450 -21333.0681 297.3484 40.1557 244.2798 85982.2887 -23.5938 -23.6610
ENERGY: 20000 3003.8029 1783.1600 226.3873 0.3249 -38095.8851 4033.4461 0.0000 0.8327 8027.6056 -21020.3255 299.1022 -29047.9311 -20948.7817 299.3615 -121.7867 -122.3371 85982.2887 67.6549 67.8196
TCL: Running FEP window  36: Lambda1 0.8599999999999999 Lambda2 0.8559999999999999 [dLambda -0.0040000000000000036]
TCL: Setting parameter firsttimestep to 0
TCL: Setting parameter alchLambda to 0.8599999999999999
Info: NONBONDED TABLE R-SQUARED SPACING: 0.0625
Info: NONBONDED TABLE SIZE: 769 POINTS
TCL: Setting parameter alchLambda2 to 0.8559999999999999
Info: NONBONDED TABLE R-SQUARED SPACING: 0.0625
Info: NONBONDED TABLE SIZE: 769 POINTS
TCL: Running for 20000 steps
ETITLE: TS BOND ANGLE DIHED IMPRP ELECT VDW BOUNDARY MISC KINETIC TOTAL TEMP POTENTIAL TOTAL3 TEMPAVG PRESSURE GPRESSURE VOLUME PRESSAVG GPRESSAVG
ENERGY: 0 3003.8029 1783.1600 226.3873 0.3249 -38094.6511 4033.2493 0.0000 0.8327 8027.6056 -21019.2883 299.1022 -29046.8940 -20947.4248 299.1022 -121.6832 -122.2418 85982.2887 -121.6832 -122.2418
ENERGY: 10000 2963.7938 1868.8821 226.7009 1.0644 -38284.7892 4125.3493 0.0000 2.2792 7990.4326 -21106.2870 297.7172 -29096.7196 -21035.0000 298.2861 1043.9156 184.3683 85982.2887 33.8142 33.7802
ENERGY: 20000 3056.5266 1861.2720 221.9609 1.8961 -38639.1298 4259.7097 0.0000 1.0632 7948.7388 -21287.9624 296.1637 -29236.7012 -21203.4133 299.8433 -590.9815 296.6276 85982.2887 69.3740 69.5722
TCL: Running FEP window  37: Lambda1 0.8559999999999999 Lambda2 0.8519999999999999 [dLambda -0.0040000000000000036]
TCL: Setting parameter firsttimestep to 0
TCL: Setting parameter alchLambda to 0.8559999999999999
Info: NONBONDED TABLE R-SQUARED SPACING: 0.0625
Info: NONBONDED TABLE SIZE: 769 POINTS
TCL: Setting parameter alchLambda2 to 0.8519999999999999
Info: NONBONDED TABLE R-SQUARED SPACING: 0.0625
Info: NONBONDED TABLE SIZE: 769 POINTS
TCL: Running for 20000 steps
ETITLE: TS BOND ANGLE DIHED IMPRP ELECT VDW BOUNDARY MISC KINETIC TOTAL TEMP POTENTIAL TOTAL3 TEMPAVG PRESSURE GPRESSURE VOLUME PRESSAVG GPRESSAVG
ENERGY: 0 3056.5266 1861.2720 221.9609 1.8961 -38637.8940 4259.5180 0.0000 1.0632 7948.7388 -21286.9183 296.1637 -29235.6571 -21209.0385 296.1637 -587.1019 300.4838 85982.2887 -587.1019 300.4838
ENERGY: 10000 3068.1207 1747.9713 221.1401 0.8604 -38289.3313 4043.3577 0.0000 1.3060 8064.9751 -21141.6000 300.4946 -29206.5751 -21068.9880 299.0251 -611.4298 -416.5174 85982.2887 53.7603 53.5548
ENERGY: 20000 2988.2215 1857.1607 224.3095 1.0448 -38621.6515 4241.1417 0.0000 2.5856 8066.3798 -21240.8081 300.5469 -29307.1878 -21170.0055 298.9605 445.3142 96.2071 85982.2887 47.5587 47.6268
TCL: Running FEP window  38: Lambda1 0.8519999999999999 Lambda2 0.8479999999999999 [dLambda -0.0040000000000000036]
TCL: Setting parameter firsttimestep to 0
TCL: Setting parameter alchLambda to 0.8519999999999999
Info: NONBONDED TABLE R-SQUARED SPACING: 0.0625
Info: NONBONDED TABLE SIZE: 769 POINTS
TCL: Setting parameter alchLambda2 to 0.8479999999999999
Info: NONBONDED TABLE R-SQUARED SPACING: 0.0625
Info: NONBONDED TABLE SIZE: 769 POINTS
TCL: Running for 20000 steps
ETITLE: TS BOND ANGLE DIHED IMPRP ELECT VDW BOUNDARY MISC KINETIC TOTAL TEMP POTENTIAL TOTAL3 TEMPAVG PRESSURE GPRESSURE VOLUME PRESSAVG GPRESSAVG
ENERGY: 0 2988.2215 1857.1607 224.3095 1.0448 -38620.4333 4240.9515 0.0000 2.5856 8066.3798 -21239.7800 300.5469 -29306.1598 -21161.1186 300.5469 441.3639 92.9827 85982.2887 441.3639 92.9827
ENERGY: 10000 3018.4195 1820.2824 226.4019 0.4861 -38329.5394 4129.1171 0.0000 0.9820 8001.2637 -21132.5867 298.1208 -29133.8505 -21058.4178 300.2454 23.5633 -2.6482 85982.2887 51.5787 51.5479
ENERGY: 20000 3037.3856 1817.7878 225.2936 0.8707 -38472.6836 4194.5723 0.0000 0.7970 8070.4009 -21125.5758 300.6968 -29195.9767 -21052.4647 299.4114 462.2855 186.2654 85982.2887 -5.0574 -5.0780
TCL: Running FEP window  39: Lambda1 0.8479999999999999 Lambda2 0.8439999999999999 [dLambda -0.0040000000000000036]
TCL: Setting parameter firsttimestep to 0
TCL: Setting parameter alchLambda to 0.8479999999999999
Info: NONBONDED TABLE R-SQUARED SPACING: 0.0625
Info: NONBONDED TABLE SIZE: 769 POINTS
TCL: Setting parameter alchLambda2 to 0.8439999999999999
Info: NONBONDED TABLE R-SQUARED SPACING: 0.0625
Info: NONBONDED TABLE SIZE: 769 POINTS
TCL: Running for 20000 steps
ETITLE: TS BOND ANGLE DIHED IMPRP ELECT VDW BOUNDARY MISC KINETIC TOTAL TEMP POTENTIAL TOTAL3 TEMPAVG PRESSURE GPRESSURE VOLUME PRESSAVG GPRESSAVG
ENERGY: 0 3037.3856 1817.7878 225.2936 0.8707 -38471.4505 4194.3419 0.0000 0.7970 8070.4009 -21124.5731 300.6968 -29194.9739 -21051.3628 300.6968 462.4360 186.1774 85982.2887 462.4360 186.1774
ENERGY: 10000 3054.4070 1801.2388 222.0951 0.7893 -38561.8681 4122.7865 0.0000 3.2255 7919.2212 -21438.1047 295.0639 -29357.3259 -21367.6993 298.6822 185.2838 -285.1688 85982.2887 90.4103 90.4682
ENERGY: 20000 3033.3565 1752.4456 222.4913 0.8646 -38402.2337 4219.2597 0.0000 2.1212 8039.6421 -21132.0527 299.5507 -29171.6948 -21055.3074 300.4863 422.6846 262.3068 85982.2887 8.2425 8.3902
TCL: Running FEP window  40: Lambda1 0.8439999999999999 Lambda2 0.8399999999999999 [dLambda -0.0040000000000000036]
TCL: Setting parameter firsttimestep to 0
TCL: Setting parameter alchLambda to 0.8439999999999999
Info: NONBONDED TABLE R-SQUARED SPACING: 0.0625
Info: NONBONDED TABLE SIZE: 769 POINTS
TCL: Setting parameter alchLambda2 to 0.8399999999999999
Info: NONBONDED TABLE R-SQUARED SPACING: 0.0625
Info: NONBONDED TABLE SIZE: 769 POINTS
TCL: Running for 20000 steps
ETITLE: TS BOND ANGLE DIHED IMPRP ELECT VDW BOUNDARY MISC KINETIC TOTAL TEMP POTENTIAL TOTAL3 TEMPAVG PRESSURE GPRESSURE VOLUME PRESSAVG GPRESSAVG
ENERGY: 0 3033.3565 1752.4456 222.4913 0.8646 -38401.1474 4219.1039 0.0000 2.1212 8039.6421 -21131.1222 299.5507 -29170.7643 -21058.9573 299.5507 425.4700 265.3679 85982.2887 425.4700 265.3679
ENERGY: 10000 3019.2408 1795.2609 220.2708 0.2956 -38646.4412 4100.6336 0.0000 1.9226 8180.1936 -21328.6233 304.7876 -29508.8169 -21246.7175 299.5910 -580.1813 -434.6413 85982.2887 62.4910 62.7055
ENERGY: 20000 3013.3989 1765.5718 220.9508 1.6121 -38522.1799 4242.7829 0.0000 1.9496 8064.0851 -21211.8287 300.4614 -29275.9138 -21130.9766 298.7517 469.3457 145.5434 85982.2887 26.0493 26.0997
TCL: Running FEP window  41: Lambda1 0.8399999999999999 Lambda2 0.8359999999999999 [dLambda -0.0040000000000000036]
TCL: Setting parameter firsttimestep to 0
TCL: Setting parameter alchLambda to 0.8399999999999999
Info: NONBONDED TABLE R-SQUARED SPACING: 0.0625
Info: NONBONDED TABLE SIZE: 769 POINTS
TCL: Setting parameter alchLambda2 to 0.8359999999999999
Info: NONBONDED TABLE R-SQUARED SPACING: 0.0625
Info: NONBONDED TABLE SIZE: 769 POINTS
TCL: Running for 20000 steps
Info: NONBONDED TABLE R-SQUARED SPACING: 0.0625
Info: NONBONDED TABLE SIZE: 769 POINTS
Info: NONBONDED TABLE R-SQUARED SPACING: 0.0625
Info: NONBONDED TABLE SIZE: 769 POINTS
Info: NONBONDED TABLE R-SQUARED SPACING: 0.0625
Info: NONBONDED TABLE SIZE: 769 POINTS
Info: NONBONDED TABLE R-SQUARED SPACING: 0.0625
Info: NONBONDED TABLE SIZE: 769 POINTS
Info: NONBONDED TABLE R-SQUARED SPACING: 0.0625
Info: NONBONDED TABLE SIZE: 769 POINTS
Info: NONBONDED TABLE R-SQUARED SPACING: 0.0625
Info: NONBONDED TABLE SIZE: 769 POINTS
Info: NONBONDED TABLE R-SQUARED SPACING: 0.0625
Info: NONBONDED TABLE SIZE: 769 POINTS
Info: NONBONDED TABLE R-SQUARED SPACING: 0.0625
Info: NONBONDED TABLE SIZE: 769 POINTS
Info: NONBONDED TABLE R-SQUARED SPACING: 0.0625
Info: NONBONDED TABLE SIZE: 769 POINTS
Info: NONBONDED TABLE R-SQUARED SPACING: 0.0625
Info: NONBONDED TABLE SIZE: 769 POINTS
Info: NONBONDED TABLE R-SQUARED SPACING: 0.0625
Info: NONBONDED TABLE SIZE: 769 POINTS
Info: NONBONDED TABLE R-SQUARED SPACING: 0.0625
Info: NONBONDED TABLE SIZE: 769 POINTS
Info: NONBONDED TABLE R-SQUARED SPACING: 0.0625
Info: NONBONDED TABLE SIZE: 769 POINTS
Info: NONBONDED TABLE R-SQUARED SPACING: 0.0625
Info: NONBONDED TABLE SIZE: 769 POINTS
Info: NONBONDED TABLE R-SQUARED SPACING: 0.0625
Info: NONBONDED TABLE SIZE: 769 POINTS
Info: NONBONDED TABLE R-SQUARED SPACING: 0.0625
Info: NONBONDED TABLE SIZE: 769 POINTS
Info: NONBONDED TABLE R-SQUARED SPACING: 0.0625
Info: NONBONDED TABLE SIZE: 769 POINTS
Info: NONBONDED TABLE R-SQUARED SPACING: 0.0625
Info: NONBONDED TABLE SIZE: 769 POINTS
Info: NONBONDED TABLE R-SQUARED SPACING: 0.0625
Info: NONBONDED TABLE SIZE: 769 POINTS
Info: NONBONDED TABLE R-SQUARED SPACING: 0.0625
Info: NONBONDED TABLE SIZE: 769 POINTS
Info: NONBONDED TABLE R-SQUARED SPACING: 0.0625
Info: NONBONDED TABLE SIZE: 769 POINTS
Info: NONBONDED TABLE R-SQUARED SPACING: 0.0625
Info: NONBONDED TABLE SIZE: 769 POINTS
Info: NONBONDED TABLE R-SQUARED SPACING: 0.0625
Info: NONBONDED TABLE SIZE: 769 POINTS
Info: NONBONDED TABLE R-SQUARED SPACING: 0.0625
Info: NONBONDED TABLE SIZE: 769 POINTS
Info: NONBONDED TABLE R-SQUARED SPACING: 0.0625
Info: NONBONDED TABLE SIZE: 769 POINTS
Info: NONBONDED TABLE R-SQUARED SPACING: 0.0625
Info: NONBONDED TABLE SIZE: 769 POINTS
Info: NONBONDED TABLE R-SQUARED SPACING: 0.0625
Info: NONBONDED TABLE SIZE: 769 POINTS
Info: NONBONDED TABLE R-SQUARED SPACING: 0.0625
Info: NONBONDED TABLE SIZE: 769 POINTS
Info: NONBONDED TABLE R-SQUARED SPACING: 0.0625
Info: NONBONDED TABLE SIZE: 769 POINTS
Info: NONBONDED TABLE R-SQUARED SPACING: 0.0625
Info: NONBONDED TABLE SIZE: 769 POINTS
Info: NONBONDED TABLE R-SQUARED SPACING: 0.0625
Info: NONBONDED TABLE SIZE: 769 POINTS
Info: NONBONDED TABLE R-SQUARED SPACING: 0.0625
Info: NONBONDED TABLE SIZE: 769 POINTS
Info: NONBONDED TABLE R-SQUARED SPACING: 0.0625
Info: NONBONDED TABLE SIZE: 769 POINTS
Info: NONBONDED TABLE R-SQUARED SPACING: 0.0625
Info: NONBONDED TABLE SIZE: 769 POINTS
Info: NONBONDED TABLE R-SQUARED SPACING: 0.0625
Info: NONBONDED TABLE SIZE: 769 POINTS
Info: NONBONDED TABLE R-SQUARED SPACING: 0.0625
Info: NONBONDED TABLE SIZE: 769 POINTS
Info: NONBONDED TABLE R-SQUARED SPACING: 0.0625
Info: NONBONDED TABLE SIZE: 769 POINTS
Info: NONBONDED TABLE R-SQUARED SPACING: 0.0625
Info: NONBONDED TABLE SIZE: 769 POINTS
Info: NONBONDED TABLE R-SQUARED SPACING: 0.0625
Info: NONBONDED TABLE SIZE: 769 POINTS
Info: NONBONDED TABLE R-SQUARED SPACING: 0.0625
Info: NONBONDED TABLE SIZE: 769 POINTS
Info: NONBONDED TABLE R-SQUARED SPACING: 0.0625
Info: NONBONDED TABLE SIZE: 769 POINTS
Info: NONBONDED TABLE R-SQUARED SPACING: 0.0625
Info: NONBONDED TABLE SIZE: 769 POINTS
Info: NONBONDED TABLE R-SQUARED SPACING: 0.0625
Info: NONBONDED TABLE SIZE: 769 POINTS
Info: NONBONDED TABLE R-SQUARED SPACING: 0.0625
Info: NONBONDED TABLE SIZE: 769 POINTS
Info: NONBONDED TABLE R-SQUARED SPACING: 0.0625
Info: NONBONDED TABLE SIZE: 769 POINTS
Info: NONBONDED TABLE R-SQUARED SPACING: 0.0625
Info: NONBONDED TABLE SIZE: 769 POINTS
Info: NONBONDED TABLE R-SQUARED SPACING: 0.0625
Info: NONBONDED TABLE SIZE: 769 POINTS
Info: NONBONDED TABLE R-SQUARED SPACING: 0.0625
Info: NONBONDED TABLE SIZE: 769 POINTS
Info: NONBONDED TABLE R-SQUARED SPACING: 0.0625
Info: NONBONDED TABLE SIZE: 769 POINTS
Info: NONBONDED TABLE R-SQUARED SPACING: 0.0625
Info: NONBONDED TABLE SIZE: 769 POINTS
Info: NONBONDED TABLE R-SQUARED SPACING: 0.0625
Info: NONBONDED TABLE SIZE: 769 POINTS
Info: NONBONDED TABLE R-SQUARED SPACING: 0.0625
Info: NONBONDED TABLE SIZE: 769 POINTS
Info: NONBONDED TABLE R-SQUARED SPACING: 0.0625
Info: NONBONDED TABLE SIZE: 769 POINTS
Info: NONBONDED TABLE R-SQUARED SPACING: 0.0625
Info: NONBONDED TABLE SIZE: 769 POINTS
Info: NONBONDED TABLE R-SQUARED SPACING: 0.0625
Info: NONBONDED TABLE SIZE: 769 POINTS
Info: NONBONDED TABLE R-SQUARED SPACING: 0.0625
Info: NONBONDED TABLE SIZE: 769 POINTS
Info: NONBONDED TABLE R-SQUARED SPACING: 0.0625
Info: NONBONDED TABLE SIZE: 769 POINTS
Info: NONBONDED TABLE R-SQUARED SPACING: 0.0625
Info: NONBONDED TABLE SIZE: 769 POINTS
Info: NONBONDED TABLE R-SQUARED SPACING: 0.0625
Info: NONBONDED TABLE SIZE: 769 POINTS
Info: NONBONDED TABLE R-SQUARED SPACING: 0.0625
Info: NONBONDED TABLE SIZE: 769 POINTS
Info: NONBONDED TABLE R-SQUARED SPACING: 0.0625
Info: NONBONDED TABLE SIZE: 769 POINTS
Info: NONBONDED TABLE R-SQUARED SPACING: 0.0625
Info: NONBONDED TABLE SIZE: 769 POINTS
Info: NONBONDED TABLE R-SQUARED SPACING: 0.0625
Info: NONBONDED TABLE SIZE: 769 POINTS
Info: NONBONDED TABLE R-SQUARED SPACING: 0.0625
Info: NONBONDED TABLE SIZE: 769 POINTS
Info: NONBONDED TABLE R-SQUARED SPACING: 0.0625
Info: NONBONDED TABLE SIZE: 769 POINTS
Info: NONBONDED TABLE R-SQUARED SPACING: 0.0625
Info: NONBONDED TABLE SIZE: 769 POINTS
Info: NONBONDED TABLE R-SQUARED SPACING: 0.0625
Info: NONBONDED TABLE SIZE: 769 POINTS
Info: NONBONDED TABLE R-SQUARED SPACING: 0.0625
Info: NONBONDED TABLE SIZE: 769 POINTS
Info: NONBONDED TABLE R-SQUARED SPACING: 0.0625
Info: NONBONDED TABLE SIZE: 769 POINTS
Info: NONBONDED TABLE R-SQUARED SPACING: 0.0625
Info: NONBONDED TABLE SIZE: 769 POINTS
Info: NONBONDED TABLE R-SQUARED SPACING: 0.0625
Info: NONBONDED TABLE SIZE: 769 POINTS
Info: NONBONDED TABLE R-SQUARED SPACING: 0.0625
Info: NONBONDED TABLE SIZE: 769 POINTS
Info: NONBONDED TABLE R-SQUARED SPACING: 0.0625
Info: NONBONDED TABLE SIZE: 769 POINTS
Info: NONBONDED TABLE R-SQUARED SPACING: 0.0625
Info: NONBONDED TABLE SIZE: 769 POINTS
Info: NONBONDED TABLE R-SQUARED SPACING: 0.0625
Info: NONBONDED TABLE SIZE: 769 POINTS
Info: NONBONDED TABLE R-SQUARED SPACING: 0.0625
Info: NONBONDED TABLE SIZE: 769 POINTS
Info: NONBONDED TABLE R-SQUARED SPACING: 0.0625
Info: NONBONDED TABLE SIZE: 769 POINTS
Info: NONBONDED TABLE R-SQUARED SPACING: 0.0625
Info: NONBONDED TABLE SIZE: 769 POINTS
Info: NONBONDED TABLE R-SQUARED SPACING: 0.0625
Info: NONBONDED TABLE SIZE: 769 POINTS
Info: NONBONDED TABLE R-SQUARED SPACING: 0.0625
Info: NONBONDED TABLE SIZE: 769 POINTS
Info: NONBONDED TABLE R-SQUARED SPACING: 0.0625
Info: NONBONDED TABLE SIZE: 769 POINTS
Info: NONBONDED TABLE R-SQUARED SPACING: 0.0625
Info: NONBONDED TABLE SIZE: 769 POINTS
Info: NONBONDED TABLE R-SQUARED SPACING: 0.0625
Info: NONBONDED TABLE SIZE: 769 POINTS
Info: NONBONDED TABLE R-SQUARED SPACING: 0.0625
Info: NONBONDED TABLE SIZE: 769 POINTS
Info: NONBONDED TABLE R-SQUARED SPACING: 0.0625
Info: NONBONDED TABLE SIZE: 769 POINTS
Info: NONBONDED TABLE R-SQUARED SPACING: 0.0625
Info: NONBONDED TABLE SIZE: 769 POINTS
Info: NONBONDED TABLE R-SQUARED SPACING: 0.0625
Info: NONBONDED TABLE SIZE: 769 POINTS
Info: NONBONDED TABLE R-SQUARED SPACING: 0.0625
Info: NONBONDED TABLE SIZE: 769 POINTS
Info: NONBONDED TABLE R-SQUARED SPACING: 0.0625
Info: NONBONDED TABLE SIZE: 769 POINTS
Info: NONBONDED TABLE R-SQUARED SPACING: 0.0625
Info: NONBONDED TABLE SIZE: 769 POINTS
Info: NONBONDED TABLE R-SQUARED SPACING: 0.0625
Info: NONBONDED TABLE SIZE: 769 POINTS
Info: NONBONDED TABLE R-SQUARED SPACING: 0.0625
Info: NONBONDED TABLE SIZE: 769 POINTS
Info: NONBONDED TABLE R-SQUARED SPACING: 0.0625
Info: NONBONDED TABLE SIZE: 769 POINTS
Info: NONBONDED TABLE R-SQUARED SPACING: 0.0625
Info: NONBONDED TABLE SIZE: 769 POINTS
Info: NONBONDED TABLE R-SQUARED SPACING: 0.0625
Info: NONBONDED TABLE SIZE: 769 POINTS
Info: NONBONDED TABLE R-SQUARED SPACING: 0.0625
Info: NONBONDED TABLE SIZE: 769 POINTS
Info: NONBONDED TABLE R-SQUARED SPACING: 0.0625
Info: NONBONDED TABLE SIZE: 769 POINTS
Info: NONBONDED TABLE R-SQUARED SPACING: 0.0625
Info: NONBONDED TABLE SIZE: 769 POINTS
Info: NONBONDED TABLE R-SQUARED SPACING: 0.0625
Info: NONBONDED TABLE SIZE: 769 POINTS
Info: NONBONDED TABLE R-SQUARED SPACING: 0.0625
Info: NONBONDED TABLE SIZE: 769 POINTS
Info: NONBONDED TABLE R-SQUARED SPACING: 0.0625
Info: NONBONDED TABLE SIZE: 769 POINTS
Info: NONBONDED TABLE R-SQUARED SPACING: 0.0625
Info: NONBONDED TABLE SIZE: 769 POINTS
Info: NONBONDED TABLE R-SQUARED SPACING: 0.0625
Info: NONBONDED TABLE SIZE: 769 POINTS
Info: NONBONDED TABLE R-SQUARED SPACING: 0.0625
Info: NONBONDED TABLE SIZE: 769 POINTS
Info: NONBONDED TABLE R-SQUARED SPACING: 0.0625
Info: NONBONDED TABLE SIZE: 769 POINTS
Info: NONBONDED TABLE R-SQUARED SPACING: 0.0625
Info: NONBONDED TABLE SIZE: 769 POINTS
Info: NONBONDED TABLE R-SQUARED SPACING: 0.0625
Info: NONBONDED TABLE SIZE: 769 POINTS
Info: NONBONDED TABLE R-SQUARED SPACING: 0.0625
Info: NONBONDED TABLE SIZE: 769 POINTS
Info: NONBONDED TABLE R-SQUARED SPACING: 0.0625
Info: NONBONDED TABLE SIZE: 769 POINTS
Info: NONBONDED TABLE R-SQUARED SPACING: 0.0625
Info: NONBONDED TABLE SIZE: 769 POINTS
Info: NONBONDED TABLE R-SQUARED SPACING: 0.0625
Info: NONBONDED TABLE SIZE: 769 POINTS
Info: NONBONDED TABLE R-SQUARED SPACING: 0.0625
Info: NONBONDED TABLE SIZE: 769 POINTS
Info: NONBONDED TABLE R-SQUARED SPACING: 0.0625
Info: NONBONDED TABLE SIZE: 769 POINTS
Info: NONBONDED TABLE R-SQUARED SPACING: 0.0625
Info: NONBONDED TABLE SIZE: 769 POINTS
Info: NONBONDED TABLE R-SQUARED SPACING: 0.0625
Info: NONBONDED TABLE SIZE: 769 POINTS
Info: NONBONDED TABLE R-SQUARED SPACING: 0.0625
Info: NONBONDED TABLE SIZE: 769 POINTS
Info: NONBONDED TABLE R-SQUARED SPACING: 0.0625
Info: NONBONDED TABLE SIZE: 769 POINTS
Info: NONBONDED TABLE R-SQUARED SPACING: 0.0625
Info: NONBONDED TABLE SIZE: 769 POINTS
Info: NONBONDED TABLE R-SQUARED SPACING: 0.0625
Info: NONBONDED TABLE SIZE: 769 POINTS
Info: NONBONDED TABLE R-SQUARED SPACING: 0.0625
Info: NONBONDED TABLE SIZE: 769 POINTS
Info: NONBONDED TABLE R-SQUARED SPACING: 0.0625
Info: NONBONDED TABLE SIZE: 769 POINTS
Info: NONBONDED TABLE R-SQUARED SPACING: 0.0625
Info: NONBONDED TABLE SIZE: 769 POINTS
Info: NONBONDED TABLE R-SQUARED SPACING: 0.0625
Info: NONBONDED TABLE SIZE: 769 POINTS
Info: NONBONDED TABLE R-SQUARED SPACING: 0.0625
Info: NONBONDED TABLE SIZE: 769 POINTS
Info: NONBONDED TABLE R-SQUARED SPACING: 0.0625
Info: NONBONDED TABLE SIZE: 769 POINTS
Info: NONBONDED TABLE R-SQUARED SPACING: 0.0625
Info: NONBONDED TABLE SIZE: 769 POINTS
Info: NONBONDED TABLE R-SQUARED SPACING: 0.0625
Info: NONBONDED TABLE SIZE: 769 POINTS
Info: NONBONDED TABLE R-SQUARED SPACING: 0.0625
Info: NONBONDED TABLE SIZE: 769 POINTS
Info: NONBONDED TABLE R-SQUARED SPACING: 0.0625
Info: NONBONDED TABLE SIZE: 769 POINTS
Info: NONBONDED TABLE R-SQUARED SPACING: 0.0625
Info: NONBONDED TABLE SIZE: 769 POINTS
Info: NONBONDED TABLE R-SQUARED SPACING: 0.0625
Info: NONBONDED TABLE SIZE: 769 POINTS
Info: NONBONDED TABLE R-SQUARED SPACING: 0.0625
Info: NONBONDED TABLE SIZE: 769 POINTS
Info: NONBONDED TABLE R-SQUARED SPACING: 0.0625
Info: NONBONDED TABLE SIZE: 769 POINTS
Info: NONBONDED TABLE R-SQUARED SPACING: 0.0625
Info: NONBONDED TABLE SIZE: 769 POINTS
Info: NONBONDED TABLE R-SQUARED SPACING: 0.0625
Info: NONBONDED TABLE SIZE: 769 POINTS
Info: NONBONDED TABLE R-SQUARED SPACING: 0.0625
Info: NONBONDED TABLE SIZE: 769 POINTS
Info: NONBONDED TABLE R-SQUARED SPACING: 0.0625
Info: NONBONDED TABLE SIZE: 769 POINTS
Info: NONBONDED TABLE R-SQUARED SPACING: 0.0625
Info: NONBONDED TABLE SIZE: 769 POINTS
Info: NONBONDED TABLE R-SQUARED SPACING: 0.0625
Info: NONBONDED TABLE SIZE: 769 POINTS
Info: NONBONDED TABLE R-SQUARED SPACING: 0.0625
Info: NONBONDED TABLE SIZE: 769 POINTS
Info: NONBONDED TABLE R-SQUARED SPACING: 0.0625
Info: NONBONDED TABLE SIZE: 769 POINTS
Info: NONBONDED TABLE R-SQUARED SPACING: 0.0625
Info: NONBONDED TABLE SIZE: 769 POINTS
Info: NONBONDED TABLE R-SQUARED SPACING: 0.0625
Info: NONBONDED TABLE SIZE: 769 POINTS
Info: NONBONDED TABLE R-SQUARED SPACING: 0.0625
Info: NONBONDED TABLE SIZE: 769 POINTS
Info: NONBONDED TABLE R-SQUARED SPACING: 0.0625
Info: NONBONDED TABLE SIZE: 769 POINTS
Info: NONBONDED TABLE R-SQUARED SPACING: 0.0625
Info: NONBONDED TABLE SIZE: 769 POINTS
Info: NONBONDED TABLE R-SQUARED SPACING: 0.0625
Info: NONBONDED TABLE SIZE: 769 POINTS
Info: NONBONDED TABLE R-SQUARED SPACING: 0.0625
Info: NONBONDED TABLE SIZE: 769 POINTS
Info: NONBONDED TABLE R-SQUARED SPACING: 0.0625
Info: NONBONDED TABLE SIZE: 769 POINTS
Info: NONBONDED TABLE R-SQUARED SPACING: 0.0625
Info: NONBONDED TABLE SIZE: 769 POINTS
Info: NONBONDED TABLE R-SQUARED SPACING: 0.0625
Info: NONBONDED TABLE SIZE: 769 POINTS
Info: NONBONDED TABLE R-SQUARED SPACING: 0.0625
Info: NONBONDED TABLE SIZE: 769 POINTS
Info: NONBONDED TABLE R-SQUARED SPACING: 0.0625
Info: NONBONDED TABLE SIZE: 769 POINTS
Info: NONBONDED TABLE R-SQUARED SPACING: 0.0625
Info: NONBONDED TABLE SIZE: 769 POINTS
Info: NONBONDED TABLE R-SQUARED SPACING: 0.0625
Info: NONBONDED TABLE SIZE: 769 POINTS
Info: NONBONDED TABLE R-SQUARED SPACING: 0.0625
Info: NONBONDED TABLE SIZE: 769 POINTS
Info: NONBONDED TABLE R-SQUARED SPACING: 0.0625
Info: NONBONDED TABLE SIZE: 769 POINTS
Info: NONBONDED TABLE R-SQUARED SPACING: 0.0625
Info: NONBONDED TABLE SIZE: 769 POINTS
Info: NONBONDED TABLE R-SQUARED SPACING: 0.0625
Info: NONBONDED TABLE SIZE: 769 POINTS
Info: NONBONDED TABLE R-SQUARED SPACING: 0.0625
Info: NONBONDED TABLE SIZE: 769 POINTS
Info: NONBONDED TABLE R-SQUARED SPACING: 0.0625
Info: NONBONDED TABLE SIZE: 769 POINTS
Info: NONBONDED TABLE R-SQUARED SPACING: 0.0625
Info: NONBONDED TABLE SIZE: 769 POINTS
Info: NONBONDED TABLE R-SQUARED SPACING: 0.0625
Info: NONBONDED TABLE SIZE: 769 POINTS
Info: NONBONDED TABLE R-SQUARED SPACING: 0.0625
Info: NONBONDED TABLE SIZE: 769 POINTS
Info: NONBONDED TABLE R-SQUARED SPACING: 0.0625
Info: NONBONDED TABLE SIZE: 769 POINTS
Info: NONBONDED TABLE R-SQUARED SPACING: 0.0625
Info: NONBONDED TABLE SIZE: 769 POINTS
Info: NONBONDED TABLE R-SQUARED SPACING: 0.0625
Info: NONBONDED TABLE SIZE: 769 POINTS
Info: NONBONDED TABLE R-SQUARED SPACING: 0.0625
Info: NONBONDED TABLE SIZE: 769 POINTS
Info: NONBONDED TABLE R-SQUARED SPACING: 0.0625
Info: NONBONDED TABLE SIZE: 769 POINTS
Info: NONBONDED TABLE R-SQUARED SPACING: 0.0625
Info: NONBONDED TABLE SIZE: 769 POINTS
Info: NONBONDED TABLE R-SQUARED SPACING: 0.0625
Info: NONBONDED TABLE SIZE: 769 POINTS
Info: NONBONDED TABLE R-SQUARED SPACING: 0.0625
Info: NONBONDED TABLE SIZE: 769 POINTS
Info: NONBONDED TABLE R-SQUARED SPACING: 0.0625
Info: NONBONDED TABLE SIZE: 769 POINTS
Info: NONBONDED TABLE R-SQUARED SPACING: 0.0625
Info: NONBONDED TABLE SIZE: 769 POINTS
Info: NONBONDED TABLE R-SQUARED SPACING: 0.0625
Info: NONBONDED TABLE SIZE: 769 POINTS
Info: NONBONDED TABLE R-SQUARED SPACING: 0.0625
Info: NONBONDED TABLE SIZE: 769 POINTS
Info: NONBONDED TABLE R-SQUARED SPACING: 0.0625
Info: NONBONDED TABLE SIZE: 769 POINTS
Info: NONBONDED TABLE R-SQUARED SPACING: 0.0625
Info: NONBONDED TABLE SIZE: 769 POINTS
Info: NONBONDED TABLE R-SQUARED SPACING: 0.0625
Info: NONBONDED TABLE SIZE: 769 POINTS
Info: NONBONDED TABLE R-SQUARED SPACING: 0.0625
Info: NONBONDED TABLE SIZE: 769 POINTS
Info: NONBONDED TABLE R-SQUARED SPACING: 0.0625
Info: NONBONDED TABLE SIZE: 769 POINTS
Info: NONBONDED TABLE R-SQUARED SPACING: 0.0625
Info: NONBONDED TABLE SIZE: 769 POINTS
Info: NONBONDED TABLE R-SQUARED SPACING: 0.0625
Info: NONBONDED TABLE SIZE: 769 POINTS
Info: NONBONDED TABLE R-SQUARED SPACING: 0.0625
Info: NONBONDED TABLE SIZE: 769 POINTS
Info: NONBONDED TABLE R-SQUARED SPACING: 0.0625
Info: NONBONDED TABLE SIZE: 769 POINTS
Info: NONBONDED TABLE R-SQUARED SPACING: 0.0625
Info: NONBONDED TABLE SIZE: 769 POINTS
Info: NONBONDED TABLE R-SQUARED SPACING: 0.0625
Info: NONBONDED TABLE SIZE: 769 POINTS
Info: NONBONDED TABLE R-SQUARED SPACING: 0.0625
Info: NONBONDED TABLE SIZE: 769 POINTS
Info: NONBONDED TABLE R-SQUARED SPACING: 0.0625
Info: NONBONDED TABLE SIZE: 769 POINTS
Info: NONBONDED TABLE R-SQUARED SPACING: 0.0625
Info: NONBONDED TABLE SIZE: 769 POINTS
Info: NONBONDED TABLE R-SQUARED SPACING: 0.0625
Info: NONBONDED TABLE SIZE: 769 POINTS
Info: NONBONDED TABLE R-SQUARED SPACING: 0.0625
Info: NONBONDED TABLE SIZE: 769 POINTS
Info: NONBONDED TABLE R-SQUARED SPACING: 0.0625
Info: NONBONDED TABLE SIZE: 769 POINTS
Info: NONBONDED TABLE R-SQUARED SPACING: 0.0625
Info: NONBONDED TABLE SIZE: 769 POINTS
Info: NONBONDED TABLE R-SQUARED SPACING: 0.0625
Info: NONBONDED TABLE SIZE: 769 POINTS
Info: NONBONDED TABLE R-SQUARED SPACING: 0.0625
Info: NONBONDED TABLE SIZE: 769 POINTS
Info: NONBONDED TABLE R-SQUARED SPACING: 0.0625
Info: NONBONDED TABLE SIZE: 769 POINTS
Info: NONBONDED TABLE R-SQUARED SPACING: 0.0625
Info: NONBONDED TABLE SIZE: 769 POINTS
Info: NONBONDED TABLE R-SQUARED SPACING: 0.0625
Info: NONBONDED TABLE SIZE: 769 POINTS
Info: NONBONDED TABLE R-SQUARED SPACING: 0.0625
Info: NONBONDED TABLE SIZE: 769 POINTS
Info: NONBONDED TABLE R-SQUARED SPACING: 0.0625
Info: NONBONDED TABLE SIZE: 769 POINTS
Info: NONBONDED TABLE R-SQUARED SPACING: 0.0625
Info: NONBONDED TABLE SIZE: 769 POINTS
Info: NONBONDED TABLE R-SQUARED SPACING: 0.0625
Info: NONBONDED TABLE SIZE: 769 POINTS
Info: NONBONDED TABLE R-SQUARED SPACING: 0.0625
Info: NONBONDED TABLE SIZE: 769 POINTS
Info: NONBONDED TABLE R-SQUARED SPACING: 0.0625
Info: NONBONDED TABLE SIZE: 769 POINTS
Info: NONBONDED TABLE R-SQUARED SPACING: 0.0625
Info: NONBONDED TABLE SIZE: 769 POINTS
Info: NONBONDED TABLE R-SQUARED SPACING: 0.0625
Info: NONBONDED TABLE SIZE: 769 POINTS
Info: NONBONDED TABLE R-SQUARED SPACING: 0.0625
Info: NONBONDED TABLE SIZE: 769 POINTS
Info: NONBONDED TABLE R-SQUARED SPACING: 0.0625
Info: NONBONDED TABLE SIZE: 769 POINTS
Info: NONBONDED TABLE R-SQUARED SPACING: 0.0625
Info: NONBONDED TABLE SIZE: 769 POINTS
Info: NONBONDED TABLE R-SQUARED SPACING: 0.0625
Info: NONBONDED TABLE SIZE: 769 POINTS
Info: NONBONDED TABLE R-SQUARED SPACING: 0.0625
Info: NONBONDED TABLE SIZE: 769 POINTS
Info: NONBONDED TABLE R-SQUARED SPACING: 0.0625
Info: NONBONDED TABLE SIZE: 769 POINTS
Info: NONBONDED TABLE R-SQUARED SPACING: 0.0625
Info: NONBONDED TABLE SIZE: 769 POINTS
Info: NONBONDED TABLE R-SQUARED SPACING: 0.0625
Info: NONBONDED TABLE SIZE: 769 POINTS
Info: NONBONDED TABLE R-SQUARED SPACING: 0.0625
Info: NONBONDED TABLE SIZE: 769 POINTS
Info: NONBONDED TABLE R-SQUARED SPACING: 0.0625
Info: NONBONDED TABLE SIZE: 769 POINTS
Info: NONBONDED TABLE R-SQUARED SPACING: 0.0625
Info: NONBONDED TABLE SIZE: 769 POINTS
Info: NONBONDED TABLE R-SQUARED SPACING: 0.0625
Info: NONBONDED TABLE SIZE: 769 POINTS
Info: NONBONDED TABLE R-SQUARED SPACING: 0.0625
Info: NONBONDED TABLE SIZE: 769 POINTS
Info: NONBONDED TABLE R-SQUARED SPACING: 0.0625
Info: NONBONDED TABLE SIZE: 769 POINTS
Info: NONBONDED TABLE R-SQUARED SPACING: 0.0625
Info: NONBONDED TABLE SIZE: 769 POINTS
Info: NONBONDED TABLE R-SQUARED SPACING: 0.0625
Info: NONBONDED TABLE SIZE: 769 POINTS
Info: NONBONDED TABLE R-SQUARED SPACING: 0.0625
Info: NONBONDED TABLE SIZE: 769 POINTS
Info: NONBONDED TABLE R-SQUARED SPACING: 0.0625
Info: NONBONDED TABLE SIZE: 769 POINTS
Info: NONBONDED TABLE R-SQUARED SPACING: 0.0625
Info: NONBONDED TABLE SIZE: 769 POINTS
Info: NONBONDED TABLE R-SQUARED SPACING: 0.0625
Info: NONBONDED TABLE SIZE: 769 POINTS
Info: NONBONDED TABLE R-SQUARED SPACING: 0.0625
Info: NONBONDED TABLE SIZE: 769 POINTS
Info: NONBONDED TABLE R-SQUARED SPACING: 0.0625
Info: NONBONDED TABLE SIZE: 769 POINTS
Info: NONBONDED TABLE R-SQUARED SPACING: 0.0625
Info: NONBONDED TABLE SIZE: 769 POINTS
Info: NONBONDED TABLE R-SQUARED SPACING: 0.0625
Info: NONBONDED TABLE SIZE: 769 POINTS
Info: NONBONDED TABLE R-SQUARED SPACING: 0.0625
Info: NONBONDED TABLE SIZE: 769 POINTS
Info: NONBONDED TABLE R-SQUARED SPACING: 0.0625
Info: NONBONDED TABLE SIZE: 769 POINTS
Info: NONBONDED TABLE R-SQUARED SPACING: 0.0625
Info: NONBONDED TABLE SIZE: 769 POINTS
Info: NONBONDED TABLE R-SQUARED SPACING: 0.0625
Info: NONBONDED TABLE SIZE: 769 POINTS
Info: NONBONDED TABLE R-SQUARED SPACING: 0.0625
Info: NONBONDED TABLE SIZE: 769 POINTS
Info: NONBONDED TABLE R-SQUARED SPACING: 0.0625
Info: NONBONDED TABLE SIZE: 769 POINTS
Info: NONBONDED TABLE R-SQUARED SPACING: 0.0625
Info: NONBONDED TABLE SIZE: 769 POINTS
Info: NONBONDED TABLE R-SQUARED SPACING: 0.0625
Info: NONBONDED TABLE SIZE: 769 POINTS
Info: NONBONDED TABLE R-SQUARED SPACING: 0.0625
Info: NONBONDED TABLE SIZE: 769 POINTS
Info: NONBONDED TABLE R-SQUARED SPACING: 0.0625
Info: NONBONDED TABLE SIZE: 769 POINTS
Info: NONBONDED TABLE R-SQUARED SPACING: 0.0625
Info: NONBONDED TABLE SIZE: 769 POINTS
Info: NONBONDED TABLE R-SQUARED SPACING: 0.0625
Info: NONBONDED TABLE SIZE: 769 POINTS
Info: NONBONDED TABLE R-SQUARED SPACING: 0.0625
Info: NONBONDED TABLE SIZE: 769 POINTS
Info: NONBONDED TABLE R-SQUARED SPACING: 0.0625
Info: NONBONDED TABLE SIZE: 769 POINTS
Info: NONBONDED TABLE R-SQUARED SPACING: 0.0625
Info: NONBONDED TABLE SIZE: 769 POINTS
Info: NONBONDED TABLE R-SQUARED SPACING: 0.0625
Info: NONBONDED TABLE SIZE: 769 POINTS
Info: NONBONDED TABLE R-SQUARED SPACING: 0.0625
Info: NONBONDED TABLE SIZE: 769 POINTS
Info: NONBONDED TABLE R-SQUARED SPACING: 0.0625
Info: NONBONDED TABLE SIZE: 769 POINTS
Info: NONBONDED TABLE R-SQUARED SPACING: 0.0625
Info: NONBONDED TABLE SIZE: 769 POINTS
Info: NONBONDED TABLE R-SQUARED SPACING: 0.0625
Info: NONBONDED TABLE SIZE: 769 POINTS
Info: NONBONDED TABLE R-SQUARED SPACING: 0.0625
Info: NONBONDED TABLE SIZE: 769 POINTS
Info: NONBONDED TABLE R-SQUARED SPACING: 0.0625
Info: NONBONDED TABLE SIZE: 769 POINTS
Info: NONBONDED TABLE R-SQUARED SPACING: 0.0625
Info: NONBONDED TABLE SIZE: 769 POINTS
Info: NONBONDED TABLE R-SQUARED SPACING: 0.0625
Info: NONBONDED TABLE SIZE: 769 POINTS
Info: NONBONDED TABLE R-SQUARED SPACING: 0.0625
Info: NONBONDED TABLE SIZE: 769 POINTS
Info: NONBONDED TABLE R-SQUARED SPACING: 0.0625
Info: NONBONDED TABLE SIZE: 769 POINTS
Info: NONBONDED TABLE R-SQUARED SPACING: 0.0625
Info: NONBONDED TABLE SIZE: 769 POINTS
Info: NONBONDED TABLE R-SQUARED SPACING: 0.0625
Info: NONBONDED TABLE SIZE: 769 POINTS
Info: NONBONDED TABLE R-SQUARED SPACING: 0.0625
Info: NONBONDED TABLE SIZE: 769 POINTS
Info: NONBONDED TABLE R-SQUARED SPACING: 0.0625
Info: NONBONDED TABLE SIZE: 769 POINTS
Info: NONBONDED TABLE R-SQUARED SPACING: 0.0625
Info: NONBONDED TABLE SIZE: 769 POINTS
Info: NONBONDED TABLE R-SQUARED SPACING: 0.0625
Info: NONBONDED TABLE SIZE: 769 POINTS
Info: NONBONDED TABLE R-SQUARED SPACING: 0.0625
Info: NONBONDED TABLE SIZE: 769 POINTS
Info: NONBONDED TABLE R-SQUARED SPACING: 0.0625
Info: NONBONDED TABLE SIZE: 769 POINTS
Info: NONBONDED TABLE R-SQUARED SPACING: 0.0625
Info: NONBONDED TABLE SIZE: 769 POINTS
Info: NONBONDED TABLE R-SQUARED SPACING: 0.0625
Info: NONBONDED TABLE SIZE: 769 POINTS
Info: NONBONDED TABLE R-SQUARED SPACING: 0.0625
Info: NONBONDED TABLE SIZE: 769 POINTS
Info: NONBONDED TABLE R-SQUARED SPACING: 0.0625
Info: NONBONDED TABLE SIZE: 769 POINTS
Info: NONBONDED TABLE R-SQUARED SPACING: 0.0625
Info: NONBONDED TABLE SIZE: 769 POINTS
Info: NONBONDED TABLE R-SQUARED SPACING: 0.0625
Info: NONBONDED TABLE SIZE: 769 POINTS
Info: NONBONDED TABLE R-SQUARED SPACING: 0.0625
Info: NONBONDED TABLE SIZE: 769 POINTS
Info: NONBONDED TABLE R-SQUARED SPACING: 0.0625
Info: NONBONDED TABLE SIZE: 769 POINTS
Info: NONBONDED TABLE R-SQUARED SPACING: 0.0625
Info: NONBONDED TABLE SIZE: 769 POINTS
Info: NONBONDED TABLE R-SQUARED SPACING: 0.0625
Info: NONBONDED TABLE SIZE: 769 POINTS
Info: NONBONDED TABLE R-SQUARED SPACING: 0.0625
Info: NONBONDED TABLE SIZE: 769 POINTS
Info: NONBONDED TABLE R-SQUARED SPACING: 0.0625
Info: NONBONDED TABLE SIZE: 769 POINTS
Info: NONBONDED TABLE R-SQUARED SPACING: 0.0625
Info: NONBONDED TABLE SIZE: 769 POINTS
Info: NONBONDED TABLE R-SQUARED SPACING: 0.0625
Info: NONBONDED TABLE SIZE: 769 POINTS
Info: NONBONDED TABLE R-SQUARED SPACING: 0.0625
Info: NONBONDED TABLE SIZE: 769 POINTS
Info: NONBONDED TABLE R-SQUARED SPACING: 0.0625
Info: NONBONDED TABLE SIZE: 769 POINTS
Info: NONBONDED TABLE R-SQUARED SPACING: 0.0625
Info: NONBONDED TABLE SIZE: 769 POINTS
Info: NONBONDED TABLE R-SQUARED SPACING: 0.0625
Info: NONBONDED TABLE SIZE: 769 POINTS
Info: NONBONDED TABLE R-SQUARED SPACING: 0.0625
Info: NONBONDED TABLE SIZE: 769 POINTS
Info: NONBONDED TABLE R-SQUARED SPACING: 0.0625
Info: NONBONDED TABLE SIZE: 769 POINTS
Info: NONBONDED TABLE R-SQUARED SPACING: 0.0625
Info: NONBONDED TABLE SIZE: 769 POINTS
Info: NONBONDED TABLE R-SQUARED SPACING: 0.0625
Info: NONBONDED TABLE SIZE: 769 POINTS
Info: NONBONDED TABLE R-SQUARED SPACING: 0.0625
Info: NONBONDED TABLE SIZE: 769 POINTS
Info: NONBONDED TABLE R-SQUARED SPACING: 0.0625
Info: NONBONDED TABLE SIZE: 769 POINTS
Info: NONBONDED TABLE R-SQUARED SPACING: 0.0625
Info: NONBONDED TABLE SIZE: 769 POINTS
Info: NONBONDED TABLE R-SQUARED SPACING: 0.0625
Info: NONBONDED TABLE SIZE: 769 POINTS
Info: NONBONDED TABLE R-SQUARED SPACING: 0.0625
Info: NONBONDED TABLE SIZE: 769 POINTS
Info: NONBONDED TABLE R-SQUARED SPACING: 0.0625
Info: NONBONDED TABLE SIZE: 769 POINTS
Info: NONBONDED TABLE R-SQUARED SPACING: 0.0625
Info: NONBONDED TABLE SIZE: 769 POINTS
Info: NONBONDED TABLE R-SQUARED SPACING: 0.0625
Info: NONBONDED TABLE SIZE: 769 POINTS
Info: NONBONDED TABLE R-SQUARED SPACING: 0.0625
Info: NONBONDED TABLE SIZE: 769 POINTS
Info: NONBONDED TABLE R-SQUARED SPACING: 0.0625
Info: NONBONDED TABLE SIZE: 769 POINTS
Info: NONBONDED TABLE R-SQUARED SPACING: 0.0625
Info: NONBONDED TABLE SIZE: 769 POINTS
Info: NONBONDED TABLE R-SQUARED SPACING: 0.0625
Info: NONBONDED TABLE SIZE: 769 POINTS
Info: NONBONDED TABLE R-SQUARED SPACING: 0.0625
Info: NONBONDED TABLE SIZE: 769 POINTS
Info: NONBONDED TABLE R-SQUARED SPACING: 0.0625
Info: NONBONDED TABLE SIZE: 769 POINTS
Info: NONBONDED TABLE R-SQUARED SPACING: 0.0625
Info: NONBONDED TABLE SIZE: 769 POINTS
Info: NONBONDED TABLE R-SQUARED SPACING: 0.0625
Info: NONBONDED TABLE SIZE: 769 POINTS
Info: NONBONDED TABLE R-SQUARED SPACING: 0.0625
Info: NONBONDED TABLE SIZE: 769 POINTS
Info: NONBONDED TABLE R-SQUARED SPACING: 0.0625
Info: NONBONDED TABLE SIZE: 769 POINTS
Info: NONBONDED TABLE R-SQUARED SPACING: 0.0625
Info: NONBONDED TABLE SIZE: 769 POINTS
Info: NONBONDED TABLE R-SQUARED SPACING: 0.0625
Info: NONBONDED TABLE SIZE: 769 POINTS
Info: NONBONDED TABLE R-SQUARED SPACING: 0.0625
Info: NONBONDED TABLE SIZE: 769 POINTS
Info: NONBONDED TABLE R-SQUARED SPACING: 0.0625
Info: NONBONDED TABLE SIZE: 769 POINTS
Info: NONBONDED TABLE R-SQUARED SPACING: 0.0625
Info: NONBONDED TABLE SIZE: 769 POINTS
Info: NONBONDED TABLE R-SQUARED SPACING: 0.0625
Info: NONBONDED TABLE SIZE: 769 POINTS
Info: NONBONDED TABLE R-SQUARED SPACING: 0.0625
Info: NONBONDED TABLE SIZE: 769 POINTS
Info: NONBONDED TABLE R-SQUARED SPACING: 0.0625
Info: NONBONDED TABLE SIZE: 769 POINTS
Info: NONBONDED TABLE R-SQUARED SPACING: 0.0625
Info: NONBONDED TABLE SIZE: 769 POINTS
Info: NONBONDED TABLE R-SQUARED SPACING: 0.0625
Info: NONBONDED TABLE SIZE: 769 POINTS
Info: NONBONDED TABLE R-SQUARED SPACING: 0.0625
Info: NONBONDED TABLE SIZE: 769 POINTS
Info: NONBONDED TABLE R-SQUARED SPACING: 0.0625
Info: NONBONDED TABLE SIZE: 769 POINTS
Info: NONBONDED TABLE R-SQUARED SPACING: 0.0625
Info: NONBONDED TABLE SIZE: 769 POINTS
Info: NONBONDED TABLE R-SQUARED SPACING: 0.0625
Info: NONBONDED TABLE SIZE: 769 POINTS
Info: NONBONDED TABLE R-SQUARED SPACING: 0.0625
Info: NONBONDED TABLE SIZE: 769 POINTS
Info: NONBONDED TABLE R-SQUARED SPACING: 0.0625
Info: NONBONDED TABLE SIZE: 769 POINTS
Info: NONBONDED TABLE R-SQUARED SPACING: 0.0625
Info: NONBONDED TABLE SIZE: 769 POINTS
Info: NONBONDED TABLE R-SQUARED SPACING: 0.0625
Info: NONBONDED TABLE SIZE: 769 POINTS
Info: NONBONDED TABLE R-SQUARED SPACING: 0.0625
Info: NONBONDED TABLE SIZE: 769 POINTS
Info: NONBONDED TABLE R-SQUARED SPACING: 0.0625
Info: NONBONDED TABLE SIZE: 769 POINTS
Info: NONBONDED TABLE R-SQUARED SPACING: 0.0625
Info: NONBONDED TABLE SIZE: 769 POINTS
Info: NONBONDED TABLE R-SQUARED SPACING: 0.0625
Info: NONBONDED TABLE SIZE: 769 POINTS
Info: NONBONDED TABLE R-SQUARED SPACING: 0.0625
Info: NONBONDED TABLE SIZE: 769 POINTS
Info: NONBONDED TABLE R-SQUARED SPACING: 0.0625
Info: NONBONDED TABLE SIZE: 769 POINTS
Info: NONBONDED TABLE R-SQUARED SPACING: 0.0625
Info: NONBONDED TABLE SIZE: 769 POINTS
Info: NONBONDED TABLE R-SQUARED SPACING: 0.0625
Info: NONBONDED TABLE SIZE: 769 POINTS
Info: NONBONDED TABLE R-SQUARED SPACING: 0.0625
Info: NONBONDED TABLE SIZE: 769 POINTS
Info: NONBONDED TABLE R-SQUARED SPACING: 0.0625
Info: NONBONDED TABLE SIZE: 769 POINTS
Info: NONBONDED TABLE R-SQUARED SPACING: 0.0625
Info: NONBONDED TABLE SIZE: 769 POINTS
Info: NONBONDED TABLE R-SQUARED SPACING: 0.0625
Info: NONBONDED TABLE SIZE: 769 POINTS
Info: NONBONDED TABLE R-SQUARED SPACING: 0.0625
Info: NONBONDED TABLE SIZE: 769 POINTS
Info: NONBONDED TABLE R-SQUARED SPACING: 0.0625
Info: NONBONDED TABLE SIZE: 769 POINTS
Info: NONBONDED TABLE R-SQUARED SPACING: 0.0625
Info: NONBONDED TABLE SIZE: 769 POINTS
Info: NONBONDED TABLE R-SQUARED SPACING: 0.0625
Info: NONBONDED TABLE SIZE: 769 POINTS
Info: NONBONDED TABLE R-SQUARED SPACING: 0.0625
Info: NONBONDED TABLE SIZE: 769 POINTS
Info: NONBONDED TABLE R-SQUARED SPACING: 0.0625
Info: NONBONDED TABLE SIZE: 769 POINTS
Info: NONBONDED TABLE R-SQUARED SPACING: 0.0625
Info: NONBONDED TABLE SIZE: 769 POINTS
Info: NONBONDED TABLE R-SQUARED SPACING: 0.0625
Info: NONBONDED TABLE SIZE: 769 POINTS
Info: NONBONDED TABLE R-SQUARED SPACING: 0.0625
Info: NONBONDED TABLE SIZE: 769 POINTS
Info: NONBONDED TABLE R-SQUARED SPACING: 0.0625
Info: NONBONDED TABLE SIZE: 769 POINTS
Info: NONBONDED TABLE R-SQUARED SPACING: 0.0625
Info: NONBONDED TABLE SIZE: 769 POINTS
Info: NONBONDED TABLE R-SQUARED SPACING: 0.0625
Info: NONBONDED TABLE SIZE: 769 POINTS
Info: NONBONDED TABLE R-SQUARED SPACING: 0.0625
Info: NONBONDED TABLE SIZE: 769 POINTS
Info: NONBONDED TABLE R-SQUARED SPACING: 0.0625
Info: NONBONDED TABLE SIZE: 769 POINTS
Info: NONBONDED TABLE R-SQUARED SPACING: 0.0625
Info: NONBONDED TABLE SIZE: 769 POINTS
Info: NONBONDED TABLE R-SQUARED SPACING: 0.0625
Info: NONBONDED TABLE SIZE: 769 POINTS
Info: NONBONDED TABLE R-SQUARED SPACING: 0.0625
Info: NONBONDED TABLE SIZE: 769 POINTS
Info: NONBONDED TABLE R-SQUARED SPACING: 0.0625
Info: NONBONDED TABLE SIZE: 769 POINTS
Info: NONBONDED TABLE R-SQUARED SPACING: 0.0625
Info: NONBONDED TABLE SIZE: 769 POINTS
Info: NONBONDED TABLE R-SQUARED SPACING: 0.0625
Info: NONBONDED TABLE SIZE: 769 POINTS
Info: NONBONDED TABLE R-SQUARED SPACING: 0.0625
Info: NONBONDED TABLE SIZE: 769 POINTS
Info: NONBONDED TABLE R-SQUARED SPACING: 0.0625
Info: NONBONDED TABLE SIZE: 769 POINTS
Info: NONBONDED TABLE R-SQUARED SPACING: 0.0625
Info: NONBONDED TABLE SIZE: 769 POINTS
Info: NONBONDED TABLE R-SQUARED SPACING: 0.0625
Info: NONBONDED TABLE SIZE: 769 POINTS
Info: NONBONDED TABLE R-SQUARED SPACING: 0.0625
Info: NONBONDED TABLE SIZE: 769 POINTS
Info: NONBONDED TABLE R-SQUARED SPACING: 0.0625
Info: NONBONDED TABLE SIZE: 769 POINTS
Info: NONBONDED TABLE R-SQUARED SPACING: 0.0625
Info: NONBONDED TABLE SIZE: 769 POINTS
Info: NONBONDED TABLE R-SQUARED SPACING: 0.0625
Info: NONBONDED TABLE SIZE: 769 POINTS
Info: NONBONDED TABLE R-SQUARED SPACING: 0.0625
Info: NONBONDED TABLE SIZE: 769 POINTS
Info: NONBONDED TABLE R-SQUARED SPACING: 0.0625
Info: NONBONDED TABLE SIZE: 769 POINTS
Info: NONBONDED TABLE R-SQUARED SPACING: 0.0625
Info: NONBONDED TABLE SIZE: 769 POINTS
Info: NONBONDED TABLE R-SQUARED SPACING: 0.0625
Info: NONBONDED TABLE SIZE: 769 POINTS
Info: NONBONDED TABLE R-SQUARED SPACING: 0.0625
Info: NONBONDED TABLE SIZE: 769 POINTS
Info: NONBONDED TABLE R-SQUARED SPACING: 0.0625
Info: NONBONDED TABLE SIZE: 769 POINTS
Info: NONBONDED TABLE R-SQUARED SPACING: 0.0625
Info: NONBONDED TABLE SIZE: 769 POINTS
Info: NONBONDED TABLE R-SQUARED SPACING: 0.0625
Info: NONBONDED TABLE SIZE: 769 POINTS
Info: NONBONDED TABLE R-SQUARED SPACING: 0.0625
Info: NONBONDED TABLE SIZE: 769 POINTS
Info: NONBONDED TABLE R-SQUARED SPACING: 0.0625
Info: NONBONDED TABLE SIZE: 769 POINTS
Info: NONBONDED TABLE R-SQUARED SPACING: 0.0625
Info: NONBONDED TABLE SIZE: 769 POINTS
Info: NONBONDED TABLE R-SQUARED SPACING: 0.0625
Info: NONBONDED TABLE SIZE: 769 POINTS
Info: NONBONDED TABLE R-SQUARED SPACING: 0.0625
Info: NONBONDED TABLE SIZE: 769 POINTS
Info: NONBONDED TABLE R-SQUARED SPACING: 0.0625
Info: NONBONDED TABLE SIZE: 769 POINTS
Info: NONBONDED TABLE R-SQUARED SPACING: 0.0625
Info: NONBONDED TABLE SIZE: 769 POINTS
Info: NONBONDED TABLE R-SQUARED SPACING: 0.0625
Info: NONBONDED TABLE SIZE: 769 POINTS
Info: NONBONDED TABLE R-SQUARED SPACING: 0.0625
Info: NONBONDED TABLE SIZE: 769 POINTS
Info: NONBONDED TABLE R-SQUARED SPACING: 0.0625
Info: NONBONDED TABLE SIZE: 769 POINTS
Info: NONBONDED TABLE R-SQUARED SPACING: 0.0625
Info: NONBONDED TABLE SIZE: 769 POINTS
Info: NONBONDED TABLE R-SQUARED SPACING: 0.0625
Info: NONBONDED TABLE SIZE: 769 POINTS
Info: NONBONDED TABLE R-SQUARED SPACING: 0.0625
Info: NONBONDED TABLE SIZE: 769 POINTS
Info: NONBONDED TABLE R-SQUARED SPACING: 0.0625
Info: NONBONDED TABLE SIZE: 769 POINTS
Info: NONBONDED TABLE R-SQUARED SPACING: 0.0625
Info: NONBONDED TABLE SIZE: 769 POINTS
Info: NONBONDED TABLE R-SQUARED SPACING: 0.0625
Info: NONBONDED TABLE SIZE: 769 POINTS
Info: NONBONDED TABLE R-SQUARED SPACING: 0.0625
Info: NONBONDED TABLE SIZE: 769 POINTS
Info: NONBONDED TABLE R-SQUARED SPACING: 0.0625
Info: NONBONDED TABLE SIZE: 769 POINTS
Info: NONBONDED TABLE R-SQUARED SPACING: 0.0625
Info: NONBONDED TABLE SIZE: 769 POINTS
Info: NONBONDED TABLE R-SQUARED SPACING: 0.0625
Info: NONBONDED TABLE SIZE: 769 POINTS
Info: NONBONDED TABLE R-SQUARED SPACING: 0.0625
Info: NONBONDED TABLE SIZE: 769 POINTS
Info: NONBONDED TABLE R-SQUARED SPACING: 0.0625
Info: NONBONDED TABLE SIZE: 769 POINTS
Info: NONBONDED TABLE R-SQUARED SPACING: 0.0625
Info: NONBONDED TABLE SIZE: 769 POINTS
Info: NONBONDED TABLE R-SQUARED SPACING: 0.0625
Info: NONBONDED TABLE SIZE: 769 POINTS
Info: NONBONDED TABLE R-SQUARED SPACING: 0.0625
Info: NONBONDED TABLE SIZE: 769 POINTS
Info: NONBONDED TABLE R-SQUARED SPACING: 0.0625
Info: NONBONDED TABLE SIZE: 769 POINTS
Info: NONBONDED TABLE R-SQUARED SPACING: 0.0625
Info: NONBONDED TABLE SIZE: 769 POINTS
Info: NONBONDED TABLE R-SQUARED SPACING: 0.0625
Info: NONBONDED TABLE SIZE: 769 POINTS
Info: NONBONDED TABLE R-SQUARED SPACING: 0.0625
Info: NONBONDED TABLE SIZE: 769 POINTS
Info: NONBONDED TABLE R-SQUARED SPACING: 0.0625
Info: NONBONDED TABLE SIZE: 769 POINTS
Info: NONBONDED TABLE R-SQUARED SPACING: 0.0625
Info: NONBONDED TABLE SIZE: 769 POINTS
Info: NONBONDED TABLE R-SQUARED SPACING: 0.0625
Info: NONBONDED TABLE SIZE: 769 POINTS
Info: NONBONDED TABLE R-SQUARED SPACING: 0.0625
Info: NONBONDED TABLE SIZE: 769 POINTS
Info: NONBONDED TABLE R-SQUARED SPACING: 0.0625
Info: NONBONDED TABLE SIZE: 769 POINTS
Info: NONBONDED TABLE R-SQUARED SPACING: 0.0625
Info: NONBONDED TABLE SIZE: 769 POINTS
Info: NONBONDED TABLE R-SQUARED SPACING: 0.0625
Info: NONBONDED TABLE SIZE: 769 POINTS
Info: NONBONDED TABLE R-SQUARED SPACING: 0.0625
Info: NONBONDED TABLE SIZE: 769 POINTS
Info: NONBONDED TABLE R-SQUARED SPACING: 0.0625
Info: NONBONDED TABLE SIZE: 769 POINTS
Info: NONBONDED TABLE R-SQUARED SPACING: 0.0625
Info: NONBONDED TABLE SIZE: 769 POINTS
Info: NONBONDED TABLE R-SQUARED SPACING: 0.0625
Info: NONBONDED TABLE SIZE: 769 POINTS
Info: NONBONDED TABLE R-SQUARED SPACING: 0.0625
Info: NONBONDED TABLE SIZE: 769 POINTS
Info: NONBONDED TABLE R-SQUARED SPACING: 0.0625
Info: NONBONDED TABLE SIZE: 769 POINTS
Info: NONBONDED TABLE R-SQUARED SPACING: 0.0625
Info: NONBONDED TABLE SIZE: 769 POINTS
Info: NONBONDED TABLE R-SQUARED SPACING: 0.0625
Info: NONBONDED TABLE SIZE: 769 POINTS
Info: NONBONDED TABLE R-SQUARED SPACING: 0.0625
Info: NONBONDED TABLE SIZE: 769 POINTS
Info: NONBONDED TABLE R-SQUARED SPACING: 0.0625
Info: NONBONDED TABLE SIZE: 769 POINTS
Info: NONBONDED TABLE R-SQUARED SPACING: 0.0625
Info: NONBONDED TABLE SIZE: 769 POINTS
