Info: SIMULATION PARAMETERS:
Info: TIMESTEP               1
Info: NUMBER OF STEPS        0
Info: STEPS PER CYCLE        20
Info: PERIODIC CELL BASIS 1  44.1569 0 0
Info: PERIODIC CELL BASIS 2  0 44.1319 0
Info: PERIODIC CELL BASIS 3  0 0 44.1223
Info: PERIODIC CELL CENTER   0 0 0
Info: FIRST LDB TIMESTEP     100
Info: LAST LDB TIMESTEP     -1
Info: HOM BACKGROUND SCALING 1
Info: PME BACKGROUND SCALING 1
Info: REMOVING PATCHES FROM PROCESSOR 0
Info: MIN ATOMS PER PATCH    40
Info: VELOCITY FILE          ../01_FEPmin/01_01.restart.vel
Info: CENTER OF MASS MOVING INITIALLY? NO
Info: DIELECTRIC             1
Info: EXCLUDE                SCALED ONE-FOUR
Info: 1-4 ELECTROSTATICS SCALED BY 1
Info: MODIFIED 1-4 VDW PARAMETERS WILL BE USED
Info: DCD FILENAME           02_01.dcd
Info: DCD FREQUENCY          5000
Info: DCD FIRST STEP         5000
Info: DCD FILE WILL CONTAIN UNIT CELL DATA
Info: XST FILENAME           02_01.xst
Info: XST FREQUENCY          5000
Info: NO VELOCITY DCD OUTPUT
Info: NO FORCE DCD OUTPUT
Info: OUTPUT FILENAME        02_01
Info: BINARY OUTPUT FILES WILL BE USED
Info: RESTART FILENAME       02_01.restart
Info: RESTART FREQUENCY      20000
Info: BINARY RESTART FILES WILL BE USED
Info: SWITCHING ACTIVE
Info: SWITCHING ON           10
Info: SWITCHING OFF          12
Info: PAIRLIST DISTANCE      13.5
Info: PAIRLIST SHRINK RATE   0.01
Info: PAIRLIST GROW RATE     0.01
Info: PAIRLIST TRIGGER       0.3
Info: PAIRLISTS PER CYCLE    2
Info: PAIRLISTS ENABLED
Info: MARGIN                 3
Info: HYDROGEN GROUP CUTOFF  2.5
Info: PATCH DIMENSION        19
Info: ENERGY OUTPUT STEPS    10000
Info: CROSSTERM ENERGY INCLUDED IN DIHEDRAL
Info: TIMING OUTPUT STEPS    100000
Info: PRESSURE OUTPUT STEPS  10000
Info: ALCHEMICAL FEP ON
Info: FEP CURRENT LAMBDA VALUE     0
Info: FEP COMPARISON LAMBDA VALUE  0.004
Info: FEP INTRA-ALCHEMICAL NON-BONDED INTERACTIONS WILL BE DECOUPLED
Info: FEP INTRA-ALCHEMICAL BONDED INTERACTIONS WILL BE RETAINED
Info: FEP VDW SHIFTING COEFFICIENT 4
Info: FEP ELEC. ACTIVE FOR ANNIHILATED PARTICLES BETWEEN LAMBDA = 0 AND LAMBDA = 0.5
Info: FEP ELEC. ACTIVE FOR EXNIHILATED PARTICLES BETWEEN LAMBDA = 0.5 AND LAMBDA = 1
Info: FEP VDW ACTIVE FOR ANNIHILATED PARTICLES BETWEEN LAMBDA = 0.4 AND LAMBDA = 1
Info: FEP VDW ACTIVE FOR EXNIHILATED PARTICLES BETWEEN LAMBDA = 0 AND LAMBDA = 0.6
Info: FEP BOND ACTIVE FOR ANNIHILATED PARTICLES BETWEEN LAMBDA = 1 AND LAMBDA = 1
Info: FEP BOND ACTIVE FOR EXNIHILATED PARTICLES BETWEEN LAMBDA = 0 AND LAMBDA = 0
Info: COLLECTIVE VARIABLES CALCULATION REQUESTED
Info: COLLECTIVE VARIABLES CONFIGURATION   ../../overlay_A_B_atoms.colvars
Info: LANGEVIN DYNAMICS ACTIVE
Info: LANGEVIN TEMPERATURE   300
Info: LANGEVIN USING BBK INTEGRATOR
Info: LANGEVIN DAMPING COEFFICIENT IS 5 INVERSE PS
Info: LANGEVIN DYNAMICS NOT APPLIED TO HYDROGENS
Info: PARTICLE MESH EWALD (PME) ACTIVE
Info: PME TOLERANCE               1e-06
Info: PME EWALD COEFFICIENT       0.257952
Info: PME INTERPOLATION ORDER     4
Info: PME GRID DIMENSIONS         48 48 48
Info: PME MAXIMUM GRID SPACING    1
Info: FULL ELECTROSTATIC EVALUATION FREQUENCY      2
Info: USING VERLET I (r-RESPA) MTS SCHEME.
Info: C1 SPLITTING OF LONG RANGE ELECTROSTATICS
Info: PLACING ATOMS IN PATCHES BY HYDROGEN GROUPS
Info: RANDOM NUMBER SEED     1685544554
Info: USE HYDROGEN BONDS?    NO
Info: COORDINATE PDB         ../../MC1_A_005NACL_rep3.pdb
Info: STRUCTURE FILE         ../../MC1_A_005NACL_rep3.psf
Info: PARAMETER file: CHARMM format!
Info: PARAMETERS             ../../../../parameters/par_water_ions.str
Info: PARAMETERS             ../../../../parameters/par_all36_carb.prm
Info: PARAMETERS             ../../../../parameters/GALP.par
Info: USING ARITHMETIC MEAN TO COMBINE L-J SIGMA PARAMETERS
Info: BINARY COORDINATES     ../01_FEPmin/01_01.restart.coor
Info: SUMMARY OF PARAMETERS:
Info: 159 BONDS
Info: 448 ANGLES
Info: 1399 DIHEDRAL
Info: 15 IMPROPER
Info: 0 CROSSTERM
Info: 86 VDW
Info: 13 VDW_PAIRS
Info: 0 NBTHOLE_PAIRS
Info: To read alchdata from file: ../../MC1_A_005NACL_rep3.pdb
Info: To read alchflag data from column: 5
Info: STRUCTURE SUMMARY:
Info: 9004 ATOMS
Info: 6047 BONDS
Info: 3213 ANGLES
Info: 414 DIHEDRALS
Info: 6 IMPROPERS
Info: 0 CROSSTERMS
Info: 0 EXCLUSIONS
Info: ALCH: 32 ATOMS TO DISAPPEAR IN FINAL STATE
Info: ALCH: 33 ATOMS TO APPEAR IN FINAL STATE
Info: 27012 DEGREES OF FREEDOM
Info: 3034 HYDROGEN GROUPS
Info: 4 ATOMS IN LARGEST HYDROGEN GROUP
Info: 3034 MIGRATION GROUPS
Info: 4 ATOMS IN LARGEST MIGRATION GROUP
Info: TOTAL MASS = 54495.3 amu
Info: TOTAL CHARGE = 0.723 e
Info: MASS DENSITY = 1.05247 g/cm^3
Info: ATOM DENSITY = 0.104719 atoms/A^3
Info: ADDED 9645 IMPLICIT EXCLUSIONS
Info: NONBONDED TABLE R-SQUARED SPACING: 0.0625
Info: NONBONDED TABLE SIZE: 769 POINTS
Info: REMOVING COM VELOCITY 0.0149173 0.0169608 -0.0996812
TCL: Running for 20000 steps
ETITLE: TS BOND ANGLE DIHED IMPRP ELECT VDW BOUNDARY MISC KINETIC TOTAL TEMP POTENTIAL TOTAL3 TEMPAVG PRESSURE GPRESSURE VOLUME PRESSAVG GPRESSAVG
ENERGY: 0 3087.2194 1782.6132 212.6363 1.3681 -38701.2006 4335.3697 0.0000 1.1622 7970.9715 -21309.8602 296.9921 -29280.8317 -21234.0087 296.9921 425.2052 460.7780 85982.2887 425.2052 460.7780
ENERGY: 10000 3047.9459 1775.7822 216.0200 0.4627 -38368.3354 4113.7374 0.0000 1.2090 7995.2995 -21217.8788 297.8985 -29213.1782 -21148.7406 297.9462 -155.5744 -72.2815 85982.2887 -38.9421 -38.9709
ENERGY: 20000 3020.4784 1815.4738 214.8489 0.2687 -38322.6493 4101.0050 0.0000 2.4416 8081.4892 -21086.6436 301.1099 -29168.1328 -21013.0476 300.1658 118.7669 -187.1194 85982.2887 15.6530 15.6743
TCL: Running FEP window   2: Lambda1 0.004  Lambda2 0.008  [dLambda 0.004 ]
TCL: Setting parameter firsttimestep to 0
TCL: Setting parameter alchLambda to 0.004
Info: NONBONDED TABLE R-SQUARED SPACING: 0.0625
Info: NONBONDED TABLE SIZE: 769 POINTS
TCL: Setting parameter alchLambda2 to 0.008
Info: NONBONDED TABLE R-SQUARED SPACING: 0.0625
Info: NONBONDED TABLE SIZE: 769 POINTS
TCL: Running for 20000 steps
ETITLE: TS BOND ANGLE DIHED IMPRP ELECT VDW BOUNDARY MISC KINETIC TOTAL TEMP POTENTIAL TOTAL3 TEMPAVG PRESSURE GPRESSURE VOLUME PRESSAVG GPRESSAVG
ENERGY: 0 3020.4784 1815.4738 214.8489 0.2687 -38322.0849 4100.8310 0.0000 2.4416 8081.4892 -21086.2533 301.1099 -29167.7424 -21005.8464 301.1099 115.1550 -189.7242 85982.2887 115.1550 -189.7242
ENERGY: 10000 3038.0488 1769.7307 214.7596 1.2754 -38718.4911 4290.3630 0.0000 1.9904 8018.2089 -21384.1142 298.7521 -29402.3232 -21304.4501 299.4146 -4.4640 256.1193 85982.2887 -17.2299 -17.4450
ENERGY: 20000 3035.6831 1832.4651 217.0787 2.3489 -38537.9800 4161.3771 0.0000 1.7533 8078.0881 -21209.1856 300.9832 -29287.2737 -21131.4591 299.3556 36.5430 -75.9796 85982.2887 -9.7791 -9.6768
TCL: Running FEP window   3: Lambda1 0.008  Lambda2 0.012  [dLambda 0.004 ]
TCL: Setting parameter firsttimestep to 0
TCL: Setting parameter alchLambda to 0.008
Info: NONBONDED TABLE R-SQUARED SPACING: 0.0625
Info: NONBONDED TABLE SIZE: 769 POINTS
TCL: Setting parameter alchLambda2 to 0.012
Info: NONBONDED TABLE R-SQUARED SPACING: 0.0625
Info: NONBONDED TABLE SIZE: 769 POINTS
TCL: Running for 20000 steps
ETITLE: TS BOND ANGLE DIHED IMPRP ELECT VDW BOUNDARY MISC KINETIC TOTAL TEMP POTENTIAL TOTAL3 TEMPAVG PRESSURE GPRESSURE VOLUME PRESSAVG GPRESSAVG
ENERGY: 0 3035.6831 1832.4651 217.0787 2.3489 -38537.3591 4161.2191 0.0000 1.7533 8078.0881 -21208.7228 300.9832 -29286.8109 -21127.9336 300.9832 34.9898 -75.7988 85982.2887 34.9898 -75.7988
ENERGY: 10000 2947.0439 1770.2236 220.2474 0.6751 -38284.0658 4097.6675 0.0000 2.3812 8042.6449 -21203.1822 299.6626 -29245.8271 -21128.2915 299.1631 1028.0696 -185.4609 85982.2887 52.8802 52.9310
ENERGY: 20000 3105.9571 1766.1014 214.3546 1.7353 -38557.1183 4288.0485 0.0000 1.3344 8165.1113 -21014.4758 304.2256 -29179.5871 -20936.6923 300.0579 302.3434 240.9267 85982.2887 41.0749 41.2029
TCL: Running FEP window   4: Lambda1 0.012  Lambda2 0.016  [dLambda 0.004 ]
TCL: Setting parameter firsttimestep to 0
TCL: Setting parameter alchLambda to 0.012
Info: NONBONDED TABLE R-SQUARED SPACING: 0.0625
Info: NONBONDED TABLE SIZE: 769 POINTS
TCL: Setting parameter alchLambda2 to 0.016
Info: NONBONDED TABLE R-SQUARED SPACING: 0.0625
Info: NONBONDED TABLE SIZE: 769 POINTS
TCL: Running for 20000 steps
ETITLE: TS BOND ANGLE DIHED IMPRP ELECT VDW BOUNDARY MISC KINETIC TOTAL TEMP POTENTIAL TOTAL3 TEMPAVG PRESSURE GPRESSURE VOLUME PRESSAVG GPRESSAVG
ENERGY: 0 3105.9571 1766.1014 214.3546 1.7353 -38556.4728 4287.9348 0.0000 1.3344 8165.1113 -21013.9439 304.2256 -29179.0552 -20933.7578 304.2256 301.2144 240.7666 85982.2887 301.2144 240.7666
ENERGY: 10000 2988.5210 1799.8757 217.1809 1.2617 -38250.8838 4071.2767 0.0000 1.0140 8111.4301 -21060.3237 302.2255 -29171.7538 -20988.6756 300.1436 1269.7511 -75.3916 85982.2887 32.2983 32.2705
ENERGY: 20000 3079.0022 1828.0926 212.7212 0.9836 -38408.7233 4186.9180 0.0000 2.1869 7980.0387 -21118.7799 297.3299 -29098.8187 -21048.3179 300.8769 219.7341 66.6995 85982.2887 -14.3517 -14.4047
TCL: Running FEP window   5: Lambda1 0.016  Lambda2 0.02   [dLambda 0.004 ]
TCL: Setting parameter firsttimestep to 0
TCL: Setting parameter alchLambda to 0.016
Info: NONBONDED TABLE R-SQUARED SPACING: 0.0625
Info: NONBONDED TABLE SIZE: 769 POINTS
TCL: Setting parameter alchLambda2 to 0.02
Info: NONBONDED TABLE R-SQUARED SPACING: 0.0625
Info: NONBONDED TABLE SIZE: 769 POINTS
TCL: Running for 20000 steps
ETITLE: TS BOND ANGLE DIHED IMPRP ELECT VDW BOUNDARY MISC KINETIC TOTAL TEMP POTENTIAL TOTAL3 TEMPAVG PRESSURE GPRESSURE VOLUME PRESSAVG GPRESSAVG
ENERGY: 0 3079.0022 1828.0926 212.7212 0.9836 -38408.1892 4186.7163 0.0000 2.1869 7980.0387 -21118.4476 297.3299 -29098.4863 -21046.8630 297.3299 219.1060 66.2468 85982.2887 219.1060 66.2468
ENERGY: 10000 3004.0164 1774.1622 213.1606 0.6022 -38475.1744 4273.6646 0.0000 4.9188 8131.3284 -21073.3211 302.9669 -29204.6495 -20991.3835 298.5261 711.1589 339.8739 85982.2887 13.6568 13.7055
ENERGY: 20000 3110.9417 1871.9302 220.8694 1.4162 -38383.3573 4120.2797 0.0000 3.0565 8069.6565 -20985.2073 300.6690 -29054.8637 -20915.5540 300.1973 -60.9325 -134.5839 85982.2887 77.1972 76.8010
TCL: Running FEP window   6: Lambda1 0.02   Lambda2 0.024  [dLambda 0.004 ]
TCL: Setting parameter firsttimestep to 0
TCL: Setting parameter alchLambda to 0.02
Info: NONBONDED TABLE R-SQUARED SPACING: 0.0625
Info: NONBONDED TABLE SIZE: 769 POINTS
TCL: Setting parameter alchLambda2 to 0.024
Info: NONBONDED TABLE R-SQUARED SPACING: 0.0625
Info: NONBONDED TABLE SIZE: 769 POINTS
TCL: Running for 20000 steps
ETITLE: TS BOND ANGLE DIHED IMPRP ELECT VDW BOUNDARY MISC KINETIC TOTAL TEMP POTENTIAL TOTAL3 TEMPAVG PRESSURE GPRESSURE VOLUME PRESSAVG GPRESSAVG
ENERGY: 0 3110.9417 1871.9302 220.8694 1.4162 -38382.8861 4120.2736 0.0000 3.0565 8069.6565 -20984.7422 300.6690 -29054.3987 -20914.4534 300.6690 -60.9867 -134.3197 85982.2887 -60.9867 -134.3197
ENERGY: 10000 3080.9964 1852.3545 223.3660 1.8517 -38517.0998 4223.2734 0.0000 1.2909 8003.4261 -21130.5409 298.2013 -29133.9670 -21059.8986 299.9518 429.4161 190.7768 85982.2887 59.6720 59.8216
ENERGY: 20000 3069.5527 1845.3248 214.1202 3.0171 -38525.6942 4223.0373 0.0000 2.5029 8096.1646 -21071.9745 301.6567 -29168.1392 -20993.6342 298.4698 -130.2094 241.1021 85982.2887 115.4236 115.4314
TCL: Running FEP window   7: Lambda1 0.024  Lambda2 0.028  [dLambda 0.004 ]
TCL: Setting parameter firsttimestep to 0
TCL: Setting parameter alchLambda to 0.024
Info: NONBONDED TABLE R-SQUARED SPACING: 0.0625
Info: NONBONDED TABLE SIZE: 769 POINTS
TCL: Setting parameter alchLambda2 to 0.028
Info: NONBONDED TABLE R-SQUARED SPACING: 0.0625
Info: NONBONDED TABLE SIZE: 769 POINTS
TCL: Running for 20000 steps
ETITLE: TS BOND ANGLE DIHED IMPRP ELECT VDW BOUNDARY MISC KINETIC TOTAL TEMP POTENTIAL TOTAL3 TEMPAVG PRESSURE GPRESSURE VOLUME PRESSAVG GPRESSAVG
ENERGY: 0 3069.5527 1845.3248 214.1202 3.0171 -38525.1798 4222.8512 0.0000 2.5029 8096.1646 -21071.6462 301.6567 -29167.8108 -20994.1969 301.6567 -129.7249 241.7504 85982.2887 -129.7249 241.7504
ENERGY: 10000 3081.4803 1849.1577 221.0063 1.6045 -38461.6884 4189.3696 0.0000 2.1475 8089.9259 -21026.9966 301.4242 -29116.9225 -20955.2166 299.1794 125.0532 121.6710 85982.2887 90.6155 90.8306
ENERGY: 20000 2953.8765 1828.3843 220.2607 0.8309 -38487.0405 4120.0998 0.0000 1.4553 8057.4776 -21304.6555 300.2153 -29362.1331 -21228.1395 299.3058 405.9415 -168.1661 85982.2887 16.3900 16.1368
TCL: Running FEP window   8: Lambda1 0.028  Lambda2 0.032  [dLambda 0.004 ]
TCL: Setting parameter firsttimestep to 0
TCL: Setting parameter alchLambda to 0.028
Info: NONBONDED TABLE R-SQUARED SPACING: 0.0625
Info: NONBONDED TABLE SIZE: 769 POINTS
TCL: Setting parameter alchLambda2 to 0.032
Info: NONBONDED TABLE R-SQUARED SPACING: 0.0625
Info: NONBONDED TABLE SIZE: 769 POINTS
TCL: Running for 20000 steps
ETITLE: TS BOND ANGLE DIHED IMPRP ELECT VDW BOUNDARY MISC KINETIC TOTAL TEMP POTENTIAL TOTAL3 TEMPAVG PRESSURE GPRESSURE VOLUME PRESSAVG GPRESSAVG
ENERGY: 0 2953.8765 1828.3843 220.2607 0.8309 -38486.4610 4119.9589 0.0000 1.4553 8057.4776 -21304.2169 300.2153 -29361.6946 -21227.9242 300.2153 406.1778 -167.0074 85982.2887 406.1778 -167.0074
ENERGY: 10000 3045.6190 1812.6121 218.4309 3.4441 -38432.4406 4134.7598 0.0000 1.7504 7970.3470 -21245.4773 296.9688 -29215.8243 -21168.9210 298.6517 -289.7170 -156.5813 85982.2887 31.6472 32.2879
ENERGY: 20000 3170.0910 1769.3217 219.9843 1.8807 -38534.4617 4217.4281 0.0000 1.4415 7975.2668 -21179.0477 297.1521 -29154.3144 -21103.5736 300.1035 -705.3982 180.8424 85982.2887 -40.9752 -41.2708
TCL: Running FEP window   9: Lambda1 0.032  Lambda2 0.036000000000000004 [dLambda 0.0040000000000000036]
TCL: Setting parameter firsttimestep to 0
TCL: Setting parameter alchLambda to 0.032
Info: NONBONDED TABLE R-SQUARED SPACING: 0.0625
Info: NONBONDED TABLE SIZE: 769 POINTS
TCL: Setting parameter alchLambda2 to 0.036000000000000004
Info: NONBONDED TABLE R-SQUARED SPACING: 0.0625
Info: NONBONDED TABLE SIZE: 769 POINTS
TCL: Running for 20000 steps
ETITLE: TS BOND ANGLE DIHED IMPRP ELECT VDW BOUNDARY MISC KINETIC TOTAL TEMP POTENTIAL TOTAL3 TEMPAVG PRESSURE GPRESSURE VOLUME PRESSAVG GPRESSAVG
ENERGY: 0 3170.0910 1769.3217 219.9843 1.8807 -38534.0489 4217.4354 0.0000 1.4415 7975.2668 -21178.6275 297.1521 -29153.8943 -21105.8966 297.1521 -703.6100 182.6726 85982.2887 -703.6100 182.6726
ENERGY: 10000 3095.1888 1824.7159 212.3180 0.7014 -38585.8753 4312.4701 0.0000 1.9683 8067.1208 -21071.3920 300.5745 -29138.5128 -21000.0712 300.1292 88.1453 399.1109 85982.2887 88.8408 89.0077
ENERGY: 20000 3064.2845 1780.3130 218.5669 0.8198 -38538.6588 4294.7601 0.0000 0.5921 8031.0882 -21148.2343 299.2320 -29179.3225 -21073.5821 300.5574 180.9055 351.9494 85982.2887 48.0626 47.8929
TCL: Running FEP window  10: Lambda1 0.036000000000000004 Lambda2 0.04000000000000001 [dLambda 0.0040000000000000036]
TCL: Setting parameter firsttimestep to 0
TCL: Setting parameter alchLambda to 0.036000000000000004
Info: NONBONDED TABLE R-SQUARED SPACING: 0.0625
Info: NONBONDED TABLE SIZE: 769 POINTS
TCL: Setting parameter alchLambda2 to 0.04000000000000001
Info: NONBONDED TABLE R-SQUARED SPACING: 0.0625
Info: NONBONDED TABLE SIZE: 769 POINTS
TCL: Running for 20000 steps
ETITLE: TS BOND ANGLE DIHED IMPRP ELECT VDW BOUNDARY MISC KINETIC TOTAL TEMP POTENTIAL TOTAL3 TEMPAVG PRESSURE GPRESSURE VOLUME PRESSAVG GPRESSAVG
ENERGY: 0 3064.2845 1780.3130 218.5669 0.8198 -38538.2936 4294.6345 0.0000 0.5921 8031.0882 -21147.9946 299.2320 -29179.0828 -21074.0538 299.2320 181.4175 352.8981 85982.2887 181.4175 352.8981
ENERGY: 10000 3100.1757 1833.7807 214.5475 1.3191 -38561.1891 4230.5062 0.0000 1.4645 8050.4296 -21128.9657 299.9526 -29179.3953 -21049.3390 299.1428 73.5807 10.6362 85982.2887 -6.3234 -6.0204
ENERGY: 20000 3030.6738 1788.9646 218.3846 2.4721 -38418.4918 4192.5397 0.0000 1.3121 8184.7396 -20999.4052 304.9569 -29184.1448 -20922.2052 301.1574 411.7229 141.6359 85982.2887 106.6755 106.6692
TCL: Running FEP window  11: Lambda1 0.04000000000000001 Lambda2 0.04400000000000001 [dLambda 0.0040000000000000036]
TCL: Setting parameter firsttimestep to 0
TCL: Setting parameter alchLambda to 0.04000000000000001
Info: NONBONDED TABLE R-SQUARED SPACING: 0.0625
Info: NONBONDED TABLE SIZE: 769 POINTS
TCL: Setting parameter alchLambda2 to 0.04400000000000001
Info: NONBONDED TABLE R-SQUARED SPACING: 0.0625
Info: NONBONDED TABLE SIZE: 769 POINTS
TCL: Running for 20000 steps
ETITLE: TS BOND ANGLE DIHED IMPRP ELECT VDW BOUNDARY MISC KINETIC TOTAL TEMP POTENTIAL TOTAL3 TEMPAVG PRESSURE GPRESSURE VOLUME PRESSAVG GPRESSAVG
ENERGY: 0 3030.6738 1788.9646 218.3846 2.4721 -38418.0606 4192.3392 0.0000 1.3121 8184.7396 -20999.1745 304.9569 -29183.9142 -20919.7945 304.9569 410.5446 141.0989 85982.2887 410.5446 141.0989
ENERGY: 10000 3103.4878 1773.3692 218.0212 0.7847 -38716.4186 4340.5072 0.0000 2.2544 8060.8148 -21217.1794 300.3396 -29277.9941 -21142.1295 299.7864 536.4773 305.2630 85982.2887 44.4814 44.3916
ENERGY: 20000 3120.5944 1821.3704 211.9201 2.4939 -38535.1603 4216.5093 0.0000 1.7194 7979.5987 -21180.9541 297.3135 -29160.5528 -21104.4131 300.2158 -312.6335 91.6835 85982.2887 4.3231 4.2976
TCL: Running FEP window  12: Lambda1 0.04400000000000001 Lambda2 0.048000000000000015 [dLambda 0.0040000000000000036]
TCL: Setting parameter firsttimestep to 0
TCL: Setting parameter alchLambda to 0.04400000000000001
Info: NONBONDED TABLE R-SQUARED SPACING: 0.0625
Info: NONBONDED TABLE SIZE: 769 POINTS
TCL: Setting parameter alchLambda2 to 0.048000000000000015
Info: NONBONDED TABLE R-SQUARED SPACING: 0.0625
Info: NONBONDED TABLE SIZE: 769 POINTS
TCL: Running for 20000 steps
ETITLE: TS BOND ANGLE DIHED IMPRP ELECT VDW BOUNDARY MISC KINETIC TOTAL TEMP POTENTIAL TOTAL3 TEMPAVG PRESSURE GPRESSURE VOLUME PRESSAVG GPRESSAVG
ENERGY: 0 3120.5944 1821.3704 211.9201 2.4939 -38534.8400 4216.3626 0.0000 1.7194 7979.5987 -21180.7806 297.3135 -29160.3793 -21103.7698 297.3135 -312.8348 91.9489 85982.2887 -312.8348 91.9489
ENERGY: 10000 3043.3248 1836.0885 219.0170 2.2252 -38331.3899 4150.6953 0.0000 1.0314 8084.8032 -20994.2045 301.2334 -29079.0077 -20918.7972 298.8400 -186.6668 73.1225 85982.2887 -19.9086 -20.0046
ENERGY: 20000 3103.5572 1860.8960 208.1575 2.7655 -38432.9217 4167.3577 0.0000 1.7746 7916.9139 -21171.4994 294.9780 -29088.4133 -21100.3747 300.0245 -391.1021 -68.8421 85982.2887 -16.1591 -16.1430
TCL: Running FEP window  13: Lambda1 0.048000000000000015 Lambda2 0.05200000000000002 [dLambda 0.0040000000000000036]
TCL: Setting parameter firsttimestep to 0
TCL: Setting parameter alchLambda to 0.048000000000000015
Info: NONBONDED TABLE R-SQUARED SPACING: 0.0625
Info: NONBONDED TABLE SIZE: 769 POINTS
TCL: Setting parameter alchLambda2 to 0.05200000000000002
Info: NONBONDED TABLE R-SQUARED SPACING: 0.0625
Info: NONBONDED TABLE SIZE: 769 POINTS
TCL: Running for 20000 steps
ETITLE: TS BOND ANGLE DIHED IMPRP ELECT VDW BOUNDARY MISC KINETIC TOTAL TEMP POTENTIAL TOTAL3 TEMPAVG PRESSURE GPRESSURE VOLUME PRESSAVG GPRESSAVG
ENERGY: 0 3103.5572 1860.8960 208.1575 2.7655 -38432.5142 4167.3372 0.0000 1.7746 7916.9139 -21171.1123 294.9780 -29088.0262 -21102.0560 294.9780 -389.6820 -67.8267 85982.2887 -389.6820 -67.8267
ENERGY: 10000 3011.5572 1806.5254 216.2931 0.7744 -38370.4540 4150.5565 0.0000 2.2006 8003.8978 -21178.6489 298.2189 -29182.5468 -21107.5258 298.4109 -233.1865 -32.6577 85982.2887 -10.5880 -10.6853
ENERGY: 20000 3030.6447 1787.2206 220.8994 1.4412 -38842.7900 4338.4252 0.0000 1.5777 8041.3713 -21421.2099 299.6151 -29462.5812 -21347.0675 299.9731 462.4055 211.4416 85982.2887 12.9521 13.1823
TCL: Running FEP window  14: Lambda1 0.05200000000000002 Lambda2 0.05600000000000002 [dLambda 0.0040000000000000036]
TCL: Setting parameter firsttimestep to 0
TCL: Setting parameter alchLambda to 0.05200000000000002
Info: NONBONDED TABLE R-SQUARED SPACING: 0.0625
Info: NONBONDED TABLE SIZE: 769 POINTS
TCL: Setting parameter alchLambda2 to 0.05600000000000002
Info: NONBONDED TABLE R-SQUARED SPACING: 0.0625
Info: NONBONDED TABLE SIZE: 769 POINTS
TCL: Running for 20000 steps
ETITLE: TS BOND ANGLE DIHED IMPRP ELECT VDW BOUNDARY MISC KINETIC TOTAL TEMP POTENTIAL TOTAL3 TEMPAVG PRESSURE GPRESSURE VOLUME PRESSAVG GPRESSAVG
ENERGY: 0 3030.6447 1787.2206 220.8994 1.4412 -38842.3562 4338.2978 0.0000 1.5777 8041.3713 -21420.9035 299.6151 -29462.2748 -21343.0980 299.6151 460.5906 210.9222 85982.2887 460.5906 210.9222
ENERGY: 10000 3056.5897 1778.3289 221.7986 0.3614 -38504.1964 4173.7175 0.0000 1.6402 8076.2402 -21195.5198 300.9143 -29271.7600 -21121.7336 299.2181 16.8405 -73.2041 85982.2887 31.9687 31.8089
ENERGY: 20000 3129.6323 1862.1389 214.2220 0.6698 -38723.3247 4274.4734 0.0000 1.4862 8064.8041 -21175.8980 300.4882 -29240.7021 -21101.4266 298.9301 -93.0129 49.0610 85982.2887 95.1330 94.9681
TCL: Running FEP window  15: Lambda1 0.05600000000000002 Lambda2 0.060000000000000026 [dLambda 0.0040000000000000036]
TCL: Setting parameter firsttimestep to 0
TCL: Setting parameter alchLambda to 0.05600000000000002
Info: NONBONDED TABLE R-SQUARED SPACING: 0.0625
Info: NONBONDED TABLE SIZE: 769 POINTS
TCL: Setting parameter alchLambda2 to 0.060000000000000026
Info: NONBONDED TABLE R-SQUARED SPACING: 0.0625
Info: NONBONDED TABLE SIZE: 769 POINTS
TCL: Running for 20000 steps
ETITLE: TS BOND ANGLE DIHED IMPRP ELECT VDW BOUNDARY MISC KINETIC TOTAL TEMP POTENTIAL TOTAL3 TEMPAVG PRESSURE GPRESSURE VOLUME PRESSAVG GPRESSAVG
ENERGY: 0 3129.6323 1862.1389 214.2220 0.6698 -38723.0343 4274.3087 0.0000 1.4862 8064.8041 -21175.7723 300.4882 -29240.5764 -21100.8039 300.4882 -93.2471 49.0332 85982.2887 -93.2471 49.0332
ENERGY: 10000 2986.6584 1857.4368 218.7265 0.9742 -38465.0200 4084.9626 0.0000 1.0483 8004.3226 -21310.8905 298.2347 -29315.2131 -21226.3048 299.4308 -165.7551 -413.6482 85982.2887 1.0981 0.9521
ENERGY: 20000 3107.5095 1823.3655 216.4122 1.6717 -38701.6222 4285.6220 0.0000 1.0087 8149.6593 -21116.3735 303.6499 -29266.0328 -21037.1110 300.2125 -78.6981 183.9948 85982.2887 30.3503 30.6284
TCL: Running FEP window  16: Lambda1 0.060000000000000026 Lambda2 0.06400000000000003 [dLambda 0.0040000000000000036]
TCL: Setting parameter firsttimestep to 0
TCL: Setting parameter alchLambda to 0.060000000000000026
Info: NONBONDED TABLE R-SQUARED SPACING: 0.0625
Info: NONBONDED TABLE SIZE: 769 POINTS
TCL: Setting parameter alchLambda2 to 0.06400000000000003
Info: NONBONDED TABLE R-SQUARED SPACING: 0.0625
Info: NONBONDED TABLE SIZE: 769 POINTS
TCL: Running for 20000 steps
ETITLE: TS BOND ANGLE DIHED IMPRP ELECT VDW BOUNDARY MISC KINETIC TOTAL TEMP POTENTIAL TOTAL3 TEMPAVG PRESSURE GPRESSURE VOLUME PRESSAVG GPRESSAVG
ENERGY: 0 3107.5095 1823.3655 216.4122 1.6717 -38701.2698 4285.4197 0.0000 1.0087 8149.6593 -21116.2233 303.6499 -29265.8826 -21036.7663 303.6499 -78.8409 183.3999 85982.2887 -78.8409 183.3999
ENERGY: 10000 3121.5295 1756.9661 215.5092 1.1129 -38574.0453 4271.7746 0.0000 2.9082 8074.1953 -21130.0496 300.8381 -29204.2449 -21051.9491 299.9706 -39.8688 261.5818 85982.2887 -10.8544 -10.8426
ENERGY: 20000 3051.4724 1800.6238 213.1885 0.4976 -38486.7446 3981.7104 0.0000 1.2435 7991.7750 -21446.2332 297.7672 -29438.0082 -21374.5671 299.7660 -790.5055 -936.0255 85982.2887 52.3246 52.0473
TCL: Running FEP window  17: Lambda1 0.06400000000000003 Lambda2 0.06800000000000003 [dLambda 0.0040000000000000036]
TCL: Setting parameter firsttimestep to 0
TCL: Setting parameter alchLambda to 0.06400000000000003
Info: NONBONDED TABLE R-SQUARED SPACING: 0.0625
Info: NONBONDED TABLE SIZE: 769 POINTS
TCL: Setting parameter alchLambda2 to 0.06800000000000003
Info: NONBONDED TABLE R-SQUARED SPACING: 0.0625
Info: NONBONDED TABLE SIZE: 769 POINTS
TCL: Running for 20000 steps
ETITLE: TS BOND ANGLE DIHED IMPRP ELECT VDW BOUNDARY MISC KINETIC TOTAL TEMP POTENTIAL TOTAL3 TEMPAVG PRESSURE GPRESSURE VOLUME PRESSAVG GPRESSAVG
ENERGY: 0 3051.4724 1800.6238 213.1885 0.4976 -38486.2378 3981.4976 0.0000 1.2435 7991.7750 -21445.9392 297.7672 -29437.7143 -21369.1008 297.7672 -793.2948 -938.6651 85982.2887 -793.2948 -938.6651
ENERGY: 10000 3119.6744 1812.1085 217.2528 1.5740 -38396.6960 4160.1614 0.0000 4.8879 7966.8364 -21114.2006 296.8380 -29081.0370 -21038.3061 298.2304 -1069.3972 -33.1853 85982.2887 34.0245 34.3490
ENERGY: 20000 3142.8972 1829.1994 216.4489 0.8256 -38625.1816 4306.0365 0.0000 1.4706 8123.9312 -21004.3723 302.6913 -29128.3034 -20931.4002 299.9955 -418.1495 368.7544 85982.2887 44.0251 44.2676
TCL: Running FEP window  18: Lambda1 0.06800000000000003 Lambda2 0.07200000000000004 [dLambda 0.0040000000000000036]
TCL: Setting parameter firsttimestep to 0
TCL: Setting parameter alchLambda to 0.06800000000000003
Info: NONBONDED TABLE R-SQUARED SPACING: 0.0625
Info: NONBONDED TABLE SIZE: 769 POINTS
TCL: Setting parameter alchLambda2 to 0.07200000000000004
Info: NONBONDED TABLE R-SQUARED SPACING: 0.0625
Info: NONBONDED TABLE SIZE: 769 POINTS
TCL: Running for 20000 steps
ETITLE: TS BOND ANGLE DIHED IMPRP ELECT VDW BOUNDARY MISC KINETIC TOTAL TEMP POTENTIAL TOTAL3 TEMPAVG PRESSURE GPRESSURE VOLUME PRESSAVG GPRESSAVG
ENERGY: 0 3142.8972 1829.1994 216.4489 0.8256 -38624.8084 4305.9599 0.0000 1.4706 8123.9312 -21004.0756 302.6913 -29128.0068 -20930.3365 302.6913 -418.4044 368.8174 85982.2887 -418.4044 368.8174
ENERGY: 10000 3057.0890 1820.5285 213.8429 0.6218 -38631.9318 4258.4701 0.0000 3.0402 7938.2841 -21340.0552 295.7742 -29278.3393 -21265.3354 299.6346 98.1547 125.5125 85982.2887 32.4172 32.5562
ENERGY: 20000 2985.2278 1820.7209 213.3659 2.5086 -38514.4495 4219.9061 0.0000 2.4482 8020.5115 -21249.7604 298.8379 -29270.2719 -21173.5876 299.6345 1193.7223 121.2123 85982.2887 -21.1423 -21.0664
TCL: Running FEP window  19: Lambda1 0.07200000000000004 Lambda2 0.07600000000000004 [dLambda 0.0040000000000000036]
TCL: Setting parameter firsttimestep to 0
TCL: Setting parameter alchLambda to 0.07200000000000004
Info: NONBONDED TABLE R-SQUARED SPACING: 0.0625
Info: NONBONDED TABLE SIZE: 769 POINTS
TCL: Setting parameter alchLambda2 to 0.07600000000000004
Info: NONBONDED TABLE R-SQUARED SPACING: 0.0625
Info: NONBONDED TABLE SIZE: 769 POINTS
TCL: Running for 20000 steps
ETITLE: TS BOND ANGLE DIHED IMPRP ELECT VDW BOUNDARY MISC KINETIC TOTAL TEMP POTENTIAL TOTAL3 TEMPAVG PRESSURE GPRESSURE VOLUME PRESSAVG GPRESSAVG
ENERGY: 0 2985.2278 1820.7209 213.3659 2.5086 -38514.0371 4219.7167 0.0000 2.4482 8020.5115 -21249.5375 298.8379 -29270.0490 -21174.7069 298.8379 1194.4411 122.4766 85982.2887 1194.4411 122.4766
ENERGY: 10000 3067.2121 1722.1450 214.5767 0.8981 -38474.9382 4172.7159 0.0000 2.4645 8093.0290 -21201.8969 301.5399 -29294.9259 -21124.2884 298.9335 -143.2513 30.8078 85982.2887 -75.9937 -75.8121
ENERGY: 20000 3005.5670 1822.6373 210.1035 0.3927 -38537.0652 4161.1651 0.0000 1.6213 7997.0030 -21338.5753 297.9620 -29335.5783 -21261.9781 299.8930 49.8545 -0.5782 85982.2887 79.9759 79.9212
TCL: Running FEP window  20: Lambda1 0.07600000000000004 Lambda2 0.08000000000000004 [dLambda 0.0040000000000000036]
TCL: Setting parameter firsttimestep to 0
TCL: Setting parameter alchLambda to 0.07600000000000004
Info: NONBONDED TABLE R-SQUARED SPACING: 0.0625
Info: NONBONDED TABLE SIZE: 769 POINTS
TCL: Setting parameter alchLambda2 to 0.08000000000000004
Info: NONBONDED TABLE R-SQUARED SPACING: 0.0625
Info: NONBONDED TABLE SIZE: 769 POINTS
TCL: Running for 20000 steps
ETITLE: TS BOND ANGLE DIHED IMPRP ELECT VDW BOUNDARY MISC KINETIC TOTAL TEMP POTENTIAL TOTAL3 TEMPAVG PRESSURE GPRESSURE VOLUME PRESSAVG GPRESSAVG
ENERGY: 0 3005.5670 1822.6373 210.1035 0.3927 -38536.7075 4161.0873 0.0000 1.6213 7997.0030 -21338.2955 297.9620 -29335.2984 -21260.7194 297.9620 49.5362 -1.1019 85982.2887 49.5362 -1.1019
ENERGY: 10000 2992.9462 1776.2074 216.1969 2.5968 -38581.8547 4286.4438 0.0000 2.8668 8102.4206 -21202.1762 301.8898 -29304.5968 -21129.4699 298.8020 1088.0110 278.9314 85982.2887 -21.7954 -21.5504
ENERGY: 20000 3021.3966 1853.8494 216.6276 1.6019 -38190.3045 4010.8909 0.0000 1.4520 8084.6515 -20999.8346 301.2277 -29084.4861 -20921.3190 300.7314 -134.4501 -367.2894 85982.2887 78.8747 78.8889
TCL: Running FEP window  21: Lambda1 0.08000000000000004 Lambda2 0.08400000000000005 [dLambda 0.0040000000000000036]
TCL: Setting parameter firsttimestep to 0
TCL: Setting parameter alchLambda to 0.08000000000000004
Info: NONBONDED TABLE R-SQUARED SPACING: 0.0625
Info: NONBONDED TABLE SIZE: 769 POINTS
TCL: Setting parameter alchLambda2 to 0.08400000000000005
Info: NONBONDED TABLE R-SQUARED SPACING: 0.0625
Info: NONBONDED TABLE SIZE: 769 POINTS
TCL: Running for 20000 steps
ETITLE: TS BOND ANGLE DIHED IMPRP ELECT VDW BOUNDARY MISC KINETIC TOTAL TEMP POTENTIAL TOTAL3 TEMPAVG PRESSURE GPRESSURE VOLUME PRESSAVG GPRESSAVG
ENERGY: 0 3021.3966 1853.8494 216.6276 1.6019 -38189.9251 4010.6761 0.0000 1.4520 8084.6515 -20999.6699 301.2277 -29084.3215 -20923.7218 301.2277 -133.0897 -366.7767 85982.2887 -133.0897 -366.7767
ENERGY: 10000 3116.7643 1814.7499 213.5484 1.8050 -38720.5632 4276.8012 0.0000 1.2478 7966.0650 -21329.5816 296.8093 -29295.6466 -21259.0112 299.4173 -313.0255 -104.3198 85982.2887 38.4167 38.5624
ENERGY: 20000 3080.4614 1806.1494 216.7660 0.7274 -38628.4347 4203.1101 0.0000 1.1385 8023.5710 -21296.5110 298.9519 -29320.0820 -21222.5691 298.8416 -222.0217 2.1797 85982.2887 -21.2078 -21.0854
TCL: Running FEP window  22: Lambda1 0.08400000000000005 Lambda2 0.08800000000000005 [dLambda 0.0040000000000000036]
TCL: Setting parameter firsttimestep to 0
TCL: Setting parameter alchLambda to 0.08400000000000005
Info: NONBONDED TABLE R-SQUARED SPACING: 0.0625
Info: NONBONDED TABLE SIZE: 769 POINTS
TCL: Setting parameter alchLambda2 to 0.08800000000000005
Info: NONBONDED TABLE R-SQUARED SPACING: 0.0625
Info: NONBONDED TABLE SIZE: 769 POINTS
TCL: Running for 20000 steps
ETITLE: TS BOND ANGLE DIHED IMPRP ELECT VDW BOUNDARY MISC KINETIC TOTAL TEMP POTENTIAL TOTAL3 TEMPAVG PRESSURE GPRESSURE VOLUME PRESSAVG GPRESSAVG
ENERGY: 0 3080.4614 1806.1494 216.7660 0.7274 -38628.0024 4202.8925 0.0000 1.1385 8023.5710 -21296.2963 298.9519 -29319.8673 -21220.7384 298.9519 -222.9360 1.3808 85982.2887 -222.9360 1.3808
ENERGY: 10000 3129.9653 1874.4179 219.9277 2.5059 -38555.3904 4231.7834 0.0000 0.6913 7884.4758 -21211.6230 293.7693 -29096.0988 -21136.4306 300.1380 12.6236 178.1575 85982.2887 46.3813 46.3600
ENERGY: 20000 2940.9610 1783.9801 223.9052 1.4038 -38350.8443 4178.6965 0.0000 1.1063 8023.6176 -21197.1737 298.9537 -29220.7913 -21121.9558 299.0191 693.3418 101.7591 85982.2887 74.4288 74.3947
TCL: Running FEP window  23: Lambda1 0.08800000000000005 Lambda2 0.09200000000000005 [dLambda 0.0040000000000000036]
TCL: Setting parameter firsttimestep to 0
TCL: Setting parameter alchLambda to 0.08800000000000005
Info: NONBONDED TABLE R-SQUARED SPACING: 0.0625
Info: NONBONDED TABLE SIZE: 769 POINTS
TCL: Setting parameter alchLambda2 to 0.09200000000000005
Info: NONBONDED TABLE R-SQUARED SPACING: 0.0625
Info: NONBONDED TABLE SIZE: 769 POINTS
TCL: Running for 20000 steps
ETITLE: TS BOND ANGLE DIHED IMPRP ELECT VDW BOUNDARY MISC KINETIC TOTAL TEMP POTENTIAL TOTAL3 TEMPAVG PRESSURE GPRESSURE VOLUME PRESSAVG GPRESSAVG
ENERGY: 0 2940.9610 1783.9801 223.9052 1.4038 -38350.5607 4178.5249 0.0000 1.1063 8023.6176 -21197.0618 298.9537 -29220.6794 -21121.5500 298.9537 693.2318 101.9731 85982.2887 693.2318 101.9731
ENERGY: 10000 3034.3186 1791.3215 216.3641 1.9480 -38499.0108 4163.8242 0.0000 1.8437 7914.7791 -21374.6116 294.8984 -29289.3907 -21298.8548 298.1234 -585.8171 -95.4588 85982.2887 82.7453 82.9994
ENERGY: 20000 2983.8122 1767.8728 226.1004 0.9096 -38072.8246 3997.9537 0.0000 1.8824 8134.8817 -20959.4118 303.0993 -29094.2936 -20884.3226 299.2169 1067.4710 -226.2624 85982.2887 103.6775 103.5772
TCL: Running FEP window  24: Lambda1 0.09200000000000005 Lambda2 0.09600000000000006 [dLambda 0.0040000000000000036]
TCL: Setting parameter firsttimestep to 0
TCL: Setting parameter alchLambda to 0.09200000000000005
Info: NONBONDED TABLE R-SQUARED SPACING: 0.0625
Info: NONBONDED TABLE SIZE: 769 POINTS
TCL: Setting parameter alchLambda2 to 0.09600000000000006
Info: NONBONDED TABLE R-SQUARED SPACING: 0.0625
Info: NONBONDED TABLE SIZE: 769 POINTS
TCL: Running for 20000 steps
ETITLE: TS BOND ANGLE DIHED IMPRP ELECT VDW BOUNDARY MISC KINETIC TOTAL TEMP POTENTIAL TOTAL3 TEMPAVG PRESSURE GPRESSURE VOLUME PRESSAVG GPRESSAVG
ENERGY: 0 2983.8122 1767.8728 226.1004 0.9096 -38072.5799 3997.8516 0.0000 1.8824 8134.8817 -20959.2693 303.0993 -29094.1510 -20883.0180 303.0993 1067.0103 -226.9927 85982.2887 1067.0103 -226.9927
ENERGY: 10000 3016.0813 1806.1836 217.2739 2.4731 -38263.4360 4031.4534 0.0000 2.2303 8045.9330 -21141.8073 299.7851 -29187.7403 -21075.7388 299.2268 -699.7276 -254.0029 85982.2887 26.5523 26.7872
ENERGY: 20000 3137.9256 1866.8417 219.6883 0.5805 -38476.4831 4122.1991 0.0000 2.0635 8094.6969 -21032.4874 301.6020 -29127.1843 -20961.0492 299.5471 -305.6911 -226.2552 85982.2887 28.9761 29.1128
TCL: Running FEP window  25: Lambda1 0.09600000000000006 Lambda2 0.10000000000000006 [dLambda 0.0040000000000000036]
TCL: Setting parameter firsttimestep to 0
TCL: Setting parameter alchLambda to 0.09600000000000006
Info: NONBONDED TABLE R-SQUARED SPACING: 0.0625
Info: NONBONDED TABLE SIZE: 769 POINTS
TCL: Setting parameter alchLambda2 to 0.10000000000000006
Info: NONBONDED TABLE R-SQUARED SPACING: 0.0625
Info: NONBONDED TABLE SIZE: 769 POINTS
TCL: Running for 20000 steps
ETITLE: TS BOND ANGLE DIHED IMPRP ELECT VDW BOUNDARY MISC KINETIC TOTAL TEMP POTENTIAL TOTAL3 TEMPAVG PRESSURE GPRESSURE VOLUME PRESSAVG GPRESSAVG
ENERGY: 0 3137.9256 1866.8417 219.6883 0.5805 -38476.0570 4122.0625 0.0000 2.0635 8094.6969 -21032.1979 301.6020 -29126.8949 -20957.2009 301.6020 -307.4471 -227.0658 85982.2887 -307.4471 -227.0658
ENERGY: 10000 2981.4939 1769.0963 223.8534 2.1578 -38418.1688 4075.3052 0.0000 0.8121 7994.1107 -21371.3393 297.8543 -29365.4500 -21298.8672 298.9750 -164.5171 -286.9750 85982.2887 41.9864 41.9858
ENERGY: 20000 3048.3490 1830.9907 216.8058 2.1686 -38292.4694 4238.5130 0.0000 2.2891 8031.2066 -20922.1467 299.2364 -28953.3533 -20842.2751 298.6954 811.0449 449.7626 85982.2887 71.3881 71.3146
TCL: Running FEP window  26: Lambda1 0.10000000000000006 Lambda2 0.10400000000000006 [dLambda 0.0040000000000000036]
TCL: Setting parameter firsttimestep to 0
TCL: Setting parameter alchLambda to 0.10000000000000006
Info: NONBONDED TABLE R-SQUARED SPACING: 0.0625
Info: NONBONDED TABLE SIZE: 769 POINTS
TCL: Setting parameter alchLambda2 to 0.10400000000000006
Info: NONBONDED TABLE R-SQUARED SPACING: 0.0625
Info: NONBONDED TABLE SIZE: 769 POINTS
TCL: Running for 20000 steps
ETITLE: TS BOND ANGLE DIHED IMPRP ELECT VDW BOUNDARY MISC KINETIC TOTAL TEMP POTENTIAL TOTAL3 TEMPAVG PRESSURE GPRESSURE VOLUME PRESSAVG GPRESSAVG
ENERGY: 0 3048.3490 1830.9907 216.8058 2.1686 -38292.1799 4238.3614 0.0000 2.2891 8031.2066 -20922.0088 299.2364 -28953.2154 -20845.4445 299.2364 812.9078 451.2678 85982.2887 812.9078 451.2678
ENERGY: 10000 3064.8620 1839.9831 213.8061 1.0378 -38687.0885 4370.7305 0.0000 1.4743 7969.9496 -21225.2451 296.9540 -29195.1946 -21150.5338 300.2292 657.0470 620.2460 85982.2887 76.0152 76.1948
ENERGY: 20000 3124.6492 1839.0448 213.1327 0.8434 -38533.6231 4281.1338 0.0000 2.9110 8010.9592 -21060.9491 298.4820 -29071.9083 -20986.5808 300.2056 -226.6439 292.9086 85982.2887 104.8779 104.8796
TCL: Running FEP window  27: Lambda1 0.10400000000000006 Lambda2 0.10800000000000007 [dLambda 0.0040000000000000036]
TCL: Setting parameter firsttimestep to 0
TCL: Setting parameter alchLambda to 0.10400000000000006
Info: NONBONDED TABLE R-SQUARED SPACING: 0.0625
Info: NONBONDED TABLE SIZE: 769 POINTS
TCL: Setting parameter alchLambda2 to 0.10800000000000007
Info: NONBONDED TABLE R-SQUARED SPACING: 0.0625
Info: NONBONDED TABLE SIZE: 769 POINTS
TCL: Running for 20000 steps
ETITLE: TS BOND ANGLE DIHED IMPRP ELECT VDW BOUNDARY MISC KINETIC TOTAL TEMP POTENTIAL TOTAL3 TEMPAVG PRESSURE GPRESSURE VOLUME PRESSAVG GPRESSAVG
ENERGY: 0 3124.6492 1839.0448 213.1327 0.8434 -38533.2624 4281.0120 0.0000 2.9110 8010.9592 -21060.7101 298.4820 -29071.6693 -20985.8243 298.4820 -226.7740 292.5361 85982.2887 -226.7740 292.5361
ENERGY: 10000 3083.3004 1783.9515 223.2398 1.6138 -38586.9255 4201.7970 0.0000 1.5935 8068.7763 -21222.6531 300.6362 -29291.4294 -21144.3156 299.0112 -282.0898 69.9228 85982.2887 -35.3373 -35.2655
ENERGY: 20000 3029.8977 1832.0296 213.0856 2.0896 -38405.9393 4217.8896 0.0000 0.8173 8023.1526 -21086.9772 298.9363 -29110.1298 -21011.8985 299.2699 765.2630 290.8098 85982.2887 36.9612 37.0397
TCL: Running FEP window  28: Lambda1 0.10800000000000007 Lambda2 0.11200000000000007 [dLambda 0.0040000000000000036]
TCL: Setting parameter firsttimestep to 0
TCL: Setting parameter alchLambda to 0.10800000000000007
Info: NONBONDED TABLE R-SQUARED SPACING: 0.0625
Info: NONBONDED TABLE SIZE: 769 POINTS
TCL: Setting parameter alchLambda2 to 0.11200000000000007
Info: NONBONDED TABLE R-SQUARED SPACING: 0.0625
Info: NONBONDED TABLE SIZE: 769 POINTS
TCL: Running for 20000 steps
ETITLE: TS BOND ANGLE DIHED IMPRP ELECT VDW BOUNDARY MISC KINETIC TOTAL TEMP POTENTIAL TOTAL3 TEMPAVG PRESSURE GPRESSURE VOLUME PRESSAVG GPRESSAVG
ENERGY: 0 3029.8977 1832.0296 213.0856 2.0896 -38405.5571 4217.7288 0.0000 0.8173 8023.1526 -21086.7559 298.9363 -29109.9084 -21012.5750 298.9363 765.8467 291.4945 85982.2887 765.8467 291.4945
ENERGY: 10000 3004.4791 1709.5530 221.0500 0.9806 -38408.0856 4317.7113 0.0000 1.3639 7894.9979 -21257.9497 294.1614 -29152.9476 -21184.9379 298.2532 1579.8572 623.9009 85982.2887 31.7106 31.4443
ENERGY: 20000 3158.1317 1834.9686 218.7232 1.0600 -38430.3848 4098.4702 0.0000 5.2992 8061.3063 -21052.4256 300.3579 -29113.7319 -20976.5370 299.9944 -829.4703 -272.0061 85982.2887 66.4481 66.2721
TCL: Running FEP window  29: Lambda1 0.11200000000000007 Lambda2 0.11600000000000008 [dLambda 0.0040000000000000036]
TCL: Setting parameter firsttimestep to 0
TCL: Setting parameter alchLambda to 0.11200000000000007
Info: NONBONDED TABLE R-SQUARED SPACING: 0.0625
Info: NONBONDED TABLE SIZE: 769 POINTS
TCL: Setting parameter alchLambda2 to 0.11600000000000008
Info: NONBONDED TABLE R-SQUARED SPACING: 0.0625
Info: NONBONDED TABLE SIZE: 769 POINTS
TCL: Running for 20000 steps
ETITLE: TS BOND ANGLE DIHED IMPRP ELECT VDW BOUNDARY MISC KINETIC TOTAL TEMP POTENTIAL TOTAL3 TEMPAVG PRESSURE GPRESSURE VOLUME PRESSAVG GPRESSAVG
ENERGY: 0 3158.1317 1834.9686 218.7232 1.0600 -38429.9629 4098.4339 0.0000 5.2992 8061.3063 -21052.0401 300.3579 -29113.3463 -20979.7797 300.3579 -827.1394 -268.6972 85982.2887 -827.1394 -268.6972
ENERGY: 10000 3047.1392 1807.9969 214.3247 0.6324 -38474.6961 4242.7534 0.0000 0.7279 8038.2466 -21122.8751 299.4987 -29161.1217 -21044.3036 300.6686 287.2083 234.3393 85982.2887 2.9912 2.9558
ENERGY: 20000 3074.0403 1823.9328 219.4546 0.7945 -38681.1877 4305.6627 0.0000 3.1237 7975.7329 -21278.4462 297.1695 -29254.1791 -21200.2303 298.3411 19.7966 271.9125 85982.2887 30.7296 30.8565
TCL: Running FEP window  30: Lambda1 0.11600000000000008 Lambda2 0.12000000000000008 [dLambda 0.0040000000000000036]
TCL: Setting parameter firsttimestep to 0
TCL: Setting parameter alchLambda to 0.11600000000000008
Info: NONBONDED TABLE R-SQUARED SPACING: 0.0625
Info: NONBONDED TABLE SIZE: 769 POINTS
TCL: Setting parameter alchLambda2 to 0.12000000000000008
Info: NONBONDED TABLE R-SQUARED SPACING: 0.0625
Info: NONBONDED TABLE SIZE: 769 POINTS
TCL: Running for 20000 steps
ETITLE: TS BOND ANGLE DIHED IMPRP ELECT VDW BOUNDARY MISC KINETIC TOTAL TEMP POTENTIAL TOTAL3 TEMPAVG PRESSURE GPRESSURE VOLUME PRESSAVG GPRESSAVG
ENERGY: 0 3074.0403 1823.9328 219.4546 0.7945 -38680.9961 4305.4614 0.0000 3.1237 7975.7329 -21278.4558 297.1695 -29254.1887 -21202.6341 297.1695 21.0496 272.7227 85982.2887 21.0496 272.7227
ENERGY: 10000 3055.6746 1788.7067 213.7881 1.1063 -38345.9531 4202.3495 0.0000 1.5822 8005.5540 -21077.1916 298.2806 -29082.7457 -21003.1593 299.0573 294.3365 312.2784 85982.2887 55.3113 55.1341
ENERGY: 20000 3019.9579 1754.2329 217.0075 2.5012 -38457.3626 4207.3143 0.0000 1.2161 7972.2986 -21282.8341 297.0415 -29255.1327 -21203.1867 298.5042 223.4678 -22.4606 85982.2887 54.2524 53.9653
TCL: Running FEP window  31: Lambda1 0.12000000000000008 Lambda2 0.12400000000000008 [dLambda 0.0040000000000000036]
TCL: Setting parameter firsttimestep to 0
TCL: Setting parameter alchLambda to 0.12000000000000008
Info: NONBONDED TABLE R-SQUARED SPACING: 0.0625
Info: NONBONDED TABLE SIZE: 769 POINTS
TCL: Setting parameter alchLambda2 to 0.12400000000000008
Info: NONBONDED TABLE R-SQUARED SPACING: 0.0625
Info: NONBONDED TABLE SIZE: 769 POINTS
TCL: Running for 20000 steps
ETITLE: TS BOND ANGLE DIHED IMPRP ELECT VDW BOUNDARY MISC KINETIC TOTAL TEMP POTENTIAL TOTAL3 TEMPAVG PRESSURE GPRESSURE VOLUME PRESSAVG GPRESSAVG
ENERGY: 0 3019.9579 1754.2329 217.0075 2.5012 -38457.0877 4207.1445 0.0000 1.2161 7972.2986 -21282.7291 297.0415 -29255.0277 -21204.0181 297.0415 224.0224 -20.4715 85982.2887 224.0224 -20.4715
ENERGY: 10000 2907.1560 1829.6251 218.8771 1.0312 -38428.3441 4129.8064 0.0000 1.5867 8001.0591 -21339.2025 298.1131 -29340.2616 -21264.8922 297.6093 1804.9473 -57.2328 85982.2887 -31.9709 -31.9682
ENERGY: 20000 3058.3394 1829.9131 218.8782 1.1553 -38539.6624 4216.9504 0.0000 1.1465 7851.4259 -21361.8537 292.5379 -29213.2796 -21289.5538 297.8984 -2.3902 39.7615 85982.2887 -15.6177 -15.3757
TCL: Running FEP window  32: Lambda1 0.12400000000000008 Lambda2 0.12800000000000009 [dLambda 0.0040000000000000036]
TCL: Setting parameter firsttimestep to 0
TCL: Setting parameter alchLambda to 0.12400000000000008
Info: NONBONDED TABLE R-SQUARED SPACING: 0.0625
Info: NONBONDED TABLE SIZE: 769 POINTS
TCL: Setting parameter alchLambda2 to 0.12800000000000009
Info: NONBONDED TABLE R-SQUARED SPACING: 0.0625
Info: NONBONDED TABLE SIZE: 769 POINTS
TCL: Running for 20000 steps
ETITLE: TS BOND ANGLE DIHED IMPRP ELECT VDW BOUNDARY MISC KINETIC TOTAL TEMP POTENTIAL TOTAL3 TEMPAVG PRESSURE GPRESSURE VOLUME PRESSAVG GPRESSAVG
ENERGY: 0 3058.3394 1829.9131 218.8782 1.1553 -38539.4391 4216.8144 0.0000 1.1465 7851.4259 -21361.7663 292.5379 -29213.1922 -21289.9156 292.5379 -2.0488 41.1075 85982.2887 -2.0488 41.1075
ENERGY: 10000 3134.7657 1829.5344 220.9091 1.9032 -38768.5844 4238.7501 0.0000 2.2279 7981.5278 -21358.9661 297.3854 -29340.4939 -21284.5301 298.9281 -446.6666 -117.9445 85982.2887 41.4991 41.5417
ENERGY: 20000 3041.1605 1800.7756 210.8964 0.5100 -38399.0845 4234.4056 0.0000 2.2322 8093.0732 -21016.0309 301.5415 -29109.1041 -20943.0777 299.6450 854.2650 225.8391 85982.2887 93.3560 93.4377
TCL: Running FEP window  33: Lambda1 0.12800000000000009 Lambda2 0.1320000000000001 [dLambda 0.0040000000000000036]
TCL: Setting parameter firsttimestep to 0
TCL: Setting parameter alchLambda to 0.12800000000000009
Info: NONBONDED TABLE R-SQUARED SPACING: 0.0625
Info: NONBONDED TABLE SIZE: 769 POINTS
TCL: Setting parameter alchLambda2 to 0.1320000000000001
Info: NONBONDED TABLE R-SQUARED SPACING: 0.0625
Info: NONBONDED TABLE SIZE: 769 POINTS
TCL: Running for 20000 steps
ETITLE: TS BOND ANGLE DIHED IMPRP ELECT VDW BOUNDARY MISC KINETIC TOTAL TEMP POTENTIAL TOTAL3 TEMPAVG PRESSURE GPRESSURE VOLUME PRESSAVG GPRESSAVG
ENERGY: 0 3041.1605 1800.7756 210.8964 0.5100 -38398.8158 4234.2145 0.0000 2.2322 8093.0732 -21015.9534 301.5415 -29109.0266 -20938.7217 301.5415 851.9610 224.3101 85982.2887 851.9610 224.3101
ENERGY: 10000 3027.1419 1776.1316 222.0264 2.0481 -38269.6425 4234.6087 0.0000 1.5737 8053.4387 -20952.6734 300.0648 -29006.1122 -20874.5991 299.6141 1165.3354 256.0779 85982.2887 44.1090 43.9336
ENERGY: 20000 2911.9061 1742.1249 210.7942 1.6540 -38116.2250 4128.0009 0.0000 2.8653 8013.4431 -21105.4366 298.5746 -29118.8797 -21032.5749 298.4903 695.7020 109.8953 85982.2887 56.7698 56.7791
TCL: Running FEP window  34: Lambda1 0.1320000000000001 Lambda2 0.1360000000000001 [dLambda 0.0040000000000000036]
TCL: Setting parameter firsttimestep to 0
TCL: Setting parameter alchLambda to 0.1320000000000001
Info: NONBONDED TABLE R-SQUARED SPACING: 0.0625
Info: NONBONDED TABLE SIZE: 769 POINTS
TCL: Setting parameter alchLambda2 to 0.1360000000000001
Info: NONBONDED TABLE R-SQUARED SPACING: 0.0625
Info: NONBONDED TABLE SIZE: 769 POINTS
TCL: Running for 20000 steps
ETITLE: TS BOND ANGLE DIHED IMPRP ELECT VDW BOUNDARY MISC KINETIC TOTAL TEMP POTENTIAL TOTAL3 TEMPAVG PRESSURE GPRESSURE VOLUME PRESSAVG GPRESSAVG
ENERGY: 0 2911.9061 1742.1249 210.7942 1.6540 -38116.0517 4127.9343 0.0000 2.8653 8013.4431 -21105.3299 298.5746 -29118.7730 -21026.7954 298.5746 692.9292 108.1259 85982.2887 692.9292 108.1259
ENERGY: 10000 3029.0485 1777.6724 211.5254 1.9337 -38550.9945 4234.5822 0.0000 1.4603 7971.5224 -21323.2496 297.0126 -29294.7720 -21244.5746 298.9366 603.2429 164.8661 85982.2887 -20.1967 -20.3358
ENERGY: 20000 2984.4603 1722.7877 219.4752 0.5076 -38199.3759 4090.6040 0.0000 2.8762 8106.8177 -21071.8473 302.0536 -29178.6649 -20996.4561 299.1078 573.1198 -27.7376 85982.2887 12.3056 12.3414
TCL: Running FEP window  35: Lambda1 0.1360000000000001 Lambda2 0.1400000000000001 [dLambda 0.0040000000000000036]
TCL: Setting parameter firsttimestep to 0
TCL: Setting parameter alchLambda to 0.1360000000000001
Info: NONBONDED TABLE R-SQUARED SPACING: 0.0625
Info: NONBONDED TABLE SIZE: 769 POINTS
TCL: Setting parameter alchLambda2 to 0.1400000000000001
Info: NONBONDED TABLE R-SQUARED SPACING: 0.0625
Info: NONBONDED TABLE SIZE: 769 POINTS
TCL: Running for 20000 steps
ETITLE: TS BOND ANGLE DIHED IMPRP ELECT VDW BOUNDARY MISC KINETIC TOTAL TEMP POTENTIAL TOTAL3 TEMPAVG PRESSURE GPRESSURE VOLUME PRESSAVG GPRESSAVG
ENERGY: 0 2984.4603 1722.7877 219.4752 0.5076 -38199.2132 4090.4973 0.0000 2.8762 8106.8177 -21071.7913 302.0536 -29178.6090 -20992.5052 302.0536 571.2038 -28.9064 85982.2887 571.2038 -28.9064
ENERGY: 10000 2999.3450 1810.3453 214.6819 0.4540 -38568.4920 4302.3806 0.0000 2.2878 7948.2610 -21290.7363 296.1459 -29238.9973 -21215.1049 299.3342 1053.7362 432.3654 85982.2887 56.9416 56.8807
ENERGY: 20000 3088.0754 1812.1009 220.0774 0.9584 -38479.5265 4171.6666 0.0000 1.2921 7959.6885 -21225.6672 296.5717 -29185.3557 -21153.6753 298.4330 -69.3403 -79.2534 85982.2887 64.0741 63.8190
TCL: Running FEP window  36: Lambda1 0.1400000000000001 Lambda2 0.1440000000000001 [dLambda 0.0040000000000000036]
TCL: Setting parameter firsttimestep to 0
TCL: Setting parameter alchLambda to 0.1400000000000001
Info: NONBONDED TABLE R-SQUARED SPACING: 0.0625
Info: NONBONDED TABLE SIZE: 769 POINTS
TCL: Setting parameter alchLambda2 to 0.1440000000000001
Info: NONBONDED TABLE R-SQUARED SPACING: 0.0625
Info: NONBONDED TABLE SIZE: 769 POINTS
TCL: Running for 20000 steps
ETITLE: TS BOND ANGLE DIHED IMPRP ELECT VDW BOUNDARY MISC KINETIC TOTAL TEMP POTENTIAL TOTAL3 TEMPAVG PRESSURE GPRESSURE VOLUME PRESSAVG GPRESSAVG
ENERGY: 0 3088.0754 1812.1009 220.0774 0.9584 -38479.2670 4171.4568 0.0000 1.2921 7959.6885 -21225.6176 296.5717 -29185.3061 -21156.4768 296.5717 -67.8060 -77.2251 85982.2887 -67.8060 -77.2251
ENERGY: 10000 3037.4401 1775.3998 220.0924 1.0064 -38365.3604 4117.2745 0.0000 4.5768 8029.6962 -21179.8742 299.1801 -29209.5704 -21107.3369 298.9309 65.3954 -79.5611 85982.2887 -10.2940 -10.4807
ENERGY: 20000 3079.4827 1861.2884 220.3784 1.6772 -38553.0716 4229.3870 0.0000 1.5356 8035.1655 -21124.1568 299.3839 -29159.3223 -21046.7227 298.9483 22.1193 82.5760 85982.2887 97.4273 97.3386
TCL: Running FEP window  37: Lambda1 0.1440000000000001 Lambda2 0.1480000000000001 [dLambda 0.0040000000000000036]
TCL: Setting parameter firsttimestep to 0
TCL: Setting parameter alchLambda to 0.1440000000000001
Info: NONBONDED TABLE R-SQUARED SPACING: 0.0625
Info: NONBONDED TABLE SIZE: 769 POINTS
TCL: Setting parameter alchLambda2 to 0.1480000000000001
Info: NONBONDED TABLE R-SQUARED SPACING: 0.0625
Info: NONBONDED TABLE SIZE: 769 POINTS
TCL: Running for 20000 steps
ETITLE: TS BOND ANGLE DIHED IMPRP ELECT VDW BOUNDARY MISC KINETIC TOTAL TEMP POTENTIAL TOTAL3 TEMPAVG PRESSURE GPRESSURE VOLUME PRESSAVG GPRESSAVG
ENERGY: 0 3079.4827 1861.2884 220.3784 1.6772 -38552.8917 4229.1991 0.0000 1.5356 8035.1655 -21124.1648 299.3839 -29159.3303 -21047.3248 299.3839 22.4653 82.9792 85982.2887 22.4653 82.9792
ENERGY: 10000 3058.4174 1752.8895 214.4785 2.7091 -38390.4523 4202.6205 0.0000 2.3926 8066.5915 -21090.3532 300.5548 -29156.9447 -21016.3770 299.5688 -128.8584 93.5546 85982.2887 47.7403 48.0426
ENERGY: 20000 2994.7254 1823.9009 226.3324 3.3035 -38682.6156 4247.6366 0.0000 3.1620 7930.8969 -21452.6579 295.4990 -29383.5548 -21376.5210 298.3179 190.9384 91.4915 85982.2887 -22.6739 -22.7993
TCL: Running FEP window  38: Lambda1 0.1480000000000001 Lambda2 0.1520000000000001 [dLambda 0.0040000000000000036]
TCL: Setting parameter firsttimestep to 0
TCL: Setting parameter alchLambda to 0.1480000000000001
Info: NONBONDED TABLE R-SQUARED SPACING: 0.0625
Info: NONBONDED TABLE SIZE: 769 POINTS
TCL: Setting parameter alchLambda2 to 0.1520000000000001
Info: NONBONDED TABLE R-SQUARED SPACING: 0.0625
Info: NONBONDED TABLE SIZE: 769 POINTS
TCL: Running for 20000 steps
ETITLE: TS BOND ANGLE DIHED IMPRP ELECT VDW BOUNDARY MISC KINETIC TOTAL TEMP POTENTIAL TOTAL3 TEMPAVG PRESSURE GPRESSURE VOLUME PRESSAVG GPRESSAVG
ENERGY: 0 2994.7254 1823.9009 226.3324 3.3035 -38682.3318 4247.4707 0.0000 3.1620 7930.8969 -21452.5400 295.4990 -29383.4369 -21379.3662 295.4990 192.6474 93.2093 85982.2887 192.6474 93.2093
ENERGY: 10000 3142.3211 1672.9817 214.7662 1.0097 -38299.4591 4139.7437 0.0000 1.1428 8034.9756 -21092.5183 299.3768 -29127.4938 -21014.5073 299.1160 -632.2636 -137.9487 85982.2887 3.5308 3.8712
ENERGY: 20000 3050.3386 1811.1560 220.9258 2.8623 -38522.9018 4199.2258 0.0000 2.0767 8053.3953 -21182.9214 300.0631 -29236.3167 -21102.5144 300.3216 52.2589 86.5889 85982.2887 65.2232 65.3798
TCL: Running FEP window  39: Lambda1 0.1520000000000001 Lambda2 0.1560000000000001 [dLambda 0.0040000000000000036]
TCL: Setting parameter firsttimestep to 0
TCL: Setting parameter alchLambda to 0.1520000000000001
Info: NONBONDED TABLE R-SQUARED SPACING: 0.0625
Info: NONBONDED TABLE SIZE: 769 POINTS
TCL: Setting parameter alchLambda2 to 0.1560000000000001
Info: NONBONDED TABLE R-SQUARED SPACING: 0.0625
Info: NONBONDED TABLE SIZE: 769 POINTS
TCL: Running for 20000 steps
ETITLE: TS BOND ANGLE DIHED IMPRP ELECT VDW BOUNDARY MISC KINETIC TOTAL TEMP POTENTIAL TOTAL3 TEMPAVG PRESSURE GPRESSURE VOLUME PRESSAVG GPRESSAVG
ENERGY: 0 3050.3386 1811.1560 220.9258 2.8623 -38522.6453 4199.0415 0.0000 2.0767 8053.3953 -21182.8492 300.0631 -29236.2445 -21104.0830 300.0631 53.2137 87.9551 85982.2887 53.2137 87.9551
ENERGY: 10000 3065.9620 1794.9166 212.6641 1.0476 -38476.1465 4181.4775 0.0000 0.5537 7984.8701 -21234.6550 297.5100 -29219.5251 -21161.4708 298.9265 61.9666 -15.7097 85982.2887 -88.3946 -88.4944
ENERGY: 20000 3095.9580 1810.1686 217.9758 1.2510 -38460.1992 4165.3619 0.0000 2.4388 8069.0326 -21098.0124 300.6458 -29167.0450 -21019.2341 299.3747 -824.4914 -101.0507 85982.2887 39.2478 39.4977
TCL: Running FEP window  40: Lambda1 0.1560000000000001 Lambda2 0.16000000000000011 [dLambda 0.0040000000000000036]
TCL: Setting parameter firsttimestep to 0
TCL: Setting parameter alchLambda to 0.1560000000000001
Info: NONBONDED TABLE R-SQUARED SPACING: 0.0625
Info: NONBONDED TABLE SIZE: 769 POINTS
TCL: Setting parameter alchLambda2 to 0.16000000000000011
Info: NONBONDED TABLE R-SQUARED SPACING: 0.0625
Info: NONBONDED TABLE SIZE: 769 POINTS
TCL: Running for 20000 steps
ETITLE: TS BOND ANGLE DIHED IMPRP ELECT VDW BOUNDARY MISC KINETIC TOTAL TEMP POTENTIAL TOTAL3 TEMPAVG PRESSURE GPRESSURE VOLUME PRESSAVG GPRESSAVG
ENERGY: 0 3095.9580 1810.1686 217.9758 1.2510 -38460.0758 4165.2120 0.0000 2.4388 8069.0326 -21098.0389 300.6458 -29167.0715 -21021.6259 300.6458 -823.1267 -99.8650 85982.2887 -823.1267 -99.8650
ENERGY: 10000 3086.0211 1724.4977 214.6463 2.8897 -38541.0013 4312.2796 0.0000 1.3972 7952.1228 -21247.1469 296.2898 -29199.2697 -21170.9311 299.0099 619.6728 389.8007 85982.2887 15.0970 14.7471
ENERGY: 20000 3054.8340 1884.1497 213.6319 0.4737 -38478.8206 4128.7756 0.0000 1.7481 8066.9653 -21128.2422 300.5688 -29195.2075 -21055.4311 299.1095 -535.2123 -121.6948 85982.2887 -16.3818 -16.2786
TCL: Running FEP window  41: Lambda1 0.16000000000000011 Lambda2 0.16400000000000012 [dLambda 0.0040000000000000036]
TCL: Setting parameter firsttimestep to 0
TCL: Setting parameter alchLambda to 0.16000000000000011
Info: NONBONDED TABLE R-SQUARED SPACING: 0.0625
Info: NONBONDED TABLE SIZE: 769 POINTS
TCL: Setting parameter alchLambda2 to 0.16400000000000012
Info: NONBONDED TABLE R-SQUARED SPACING: 0.0625
Info: NONBONDED TABLE SIZE: 769 POINTS
TCL: Running for 20000 steps
Info: NONBONDED TABLE R-SQUARED SPACING: 0.0625
Info: NONBONDED TABLE SIZE: 769 POINTS
Info: NONBONDED TABLE R-SQUARED SPACING: 0.0625
Info: NONBONDED TABLE SIZE: 769 POINTS
Info: NONBONDED TABLE R-SQUARED SPACING: 0.0625
Info: NONBONDED TABLE SIZE: 769 POINTS
Info: NONBONDED TABLE R-SQUARED SPACING: 0.0625
Info: NONBONDED TABLE SIZE: 769 POINTS
Info: NONBONDED TABLE R-SQUARED SPACING: 0.0625
Info: NONBONDED TABLE SIZE: 769 POINTS
Info: NONBONDED TABLE R-SQUARED SPACING: 0.0625
Info: NONBONDED TABLE SIZE: 769 POINTS
Info: NONBONDED TABLE R-SQUARED SPACING: 0.0625
Info: NONBONDED TABLE SIZE: 769 POINTS
Info: NONBONDED TABLE R-SQUARED SPACING: 0.0625
Info: NONBONDED TABLE SIZE: 769 POINTS
Info: NONBONDED TABLE R-SQUARED SPACING: 0.0625
Info: NONBONDED TABLE SIZE: 769 POINTS
Info: NONBONDED TABLE R-SQUARED SPACING: 0.0625
Info: NONBONDED TABLE SIZE: 769 POINTS
Info: NONBONDED TABLE R-SQUARED SPACING: 0.0625
Info: NONBONDED TABLE SIZE: 769 POINTS
Info: NONBONDED TABLE R-SQUARED SPACING: 0.0625
Info: NONBONDED TABLE SIZE: 769 POINTS
Info: NONBONDED TABLE R-SQUARED SPACING: 0.0625
Info: NONBONDED TABLE SIZE: 769 POINTS
Info: NONBONDED TABLE R-SQUARED SPACING: 0.0625
Info: NONBONDED TABLE SIZE: 769 POINTS
Info: NONBONDED TABLE R-SQUARED SPACING: 0.0625
Info: NONBONDED TABLE SIZE: 769 POINTS
Info: NONBONDED TABLE R-SQUARED SPACING: 0.0625
Info: NONBONDED TABLE SIZE: 769 POINTS
Info: NONBONDED TABLE R-SQUARED SPACING: 0.0625
Info: NONBONDED TABLE SIZE: 769 POINTS
Info: NONBONDED TABLE R-SQUARED SPACING: 0.0625
Info: NONBONDED TABLE SIZE: 769 POINTS
Info: NONBONDED TABLE R-SQUARED SPACING: 0.0625
Info: NONBONDED TABLE SIZE: 769 POINTS
Info: NONBONDED TABLE R-SQUARED SPACING: 0.0625
Info: NONBONDED TABLE SIZE: 769 POINTS
Info: NONBONDED TABLE R-SQUARED SPACING: 0.0625
Info: NONBONDED TABLE SIZE: 769 POINTS
Info: NONBONDED TABLE R-SQUARED SPACING: 0.0625
Info: NONBONDED TABLE SIZE: 769 POINTS
Info: NONBONDED TABLE R-SQUARED SPACING: 0.0625
Info: NONBONDED TABLE SIZE: 769 POINTS
Info: NONBONDED TABLE R-SQUARED SPACING: 0.0625
Info: NONBONDED TABLE SIZE: 769 POINTS
Info: NONBONDED TABLE R-SQUARED SPACING: 0.0625
Info: NONBONDED TABLE SIZE: 769 POINTS
Info: NONBONDED TABLE R-SQUARED SPACING: 0.0625
Info: NONBONDED TABLE SIZE: 769 POINTS
Info: NONBONDED TABLE R-SQUARED SPACING: 0.0625
Info: NONBONDED TABLE SIZE: 769 POINTS
Info: NONBONDED TABLE R-SQUARED SPACING: 0.0625
Info: NONBONDED TABLE SIZE: 769 POINTS
Info: NONBONDED TABLE R-SQUARED SPACING: 0.0625
Info: NONBONDED TABLE SIZE: 769 POINTS
Info: NONBONDED TABLE R-SQUARED SPACING: 0.0625
Info: NONBONDED TABLE SIZE: 769 POINTS
Info: NONBONDED TABLE R-SQUARED SPACING: 0.0625
Info: NONBONDED TABLE SIZE: 769 POINTS
Info: NONBONDED TABLE R-SQUARED SPACING: 0.0625
Info: NONBONDED TABLE SIZE: 769 POINTS
Info: NONBONDED TABLE R-SQUARED SPACING: 0.0625
Info: NONBONDED TABLE SIZE: 769 POINTS
Info: NONBONDED TABLE R-SQUARED SPACING: 0.0625
Info: NONBONDED TABLE SIZE: 769 POINTS
Info: NONBONDED TABLE R-SQUARED SPACING: 0.0625
Info: NONBONDED TABLE SIZE: 769 POINTS
Info: NONBONDED TABLE R-SQUARED SPACING: 0.0625
Info: NONBONDED TABLE SIZE: 769 POINTS
Info: NONBONDED TABLE R-SQUARED SPACING: 0.0625
Info: NONBONDED TABLE SIZE: 769 POINTS
Info: NONBONDED TABLE R-SQUARED SPACING: 0.0625
Info: NONBONDED TABLE SIZE: 769 POINTS
Info: NONBONDED TABLE R-SQUARED SPACING: 0.0625
Info: NONBONDED TABLE SIZE: 769 POINTS
Info: NONBONDED TABLE R-SQUARED SPACING: 0.0625
Info: NONBONDED TABLE SIZE: 769 POINTS
Info: NONBONDED TABLE R-SQUARED SPACING: 0.0625
Info: NONBONDED TABLE SIZE: 769 POINTS
Info: NONBONDED TABLE R-SQUARED SPACING: 0.0625
Info: NONBONDED TABLE SIZE: 769 POINTS
Info: NONBONDED TABLE R-SQUARED SPACING: 0.0625
Info: NONBONDED TABLE SIZE: 769 POINTS
Info: NONBONDED TABLE R-SQUARED SPACING: 0.0625
Info: NONBONDED TABLE SIZE: 769 POINTS
Info: NONBONDED TABLE R-SQUARED SPACING: 0.0625
Info: NONBONDED TABLE SIZE: 769 POINTS
Info: NONBONDED TABLE R-SQUARED SPACING: 0.0625
Info: NONBONDED TABLE SIZE: 769 POINTS
Info: NONBONDED TABLE R-SQUARED SPACING: 0.0625
Info: NONBONDED TABLE SIZE: 769 POINTS
Info: NONBONDED TABLE R-SQUARED SPACING: 0.0625
Info: NONBONDED TABLE SIZE: 769 POINTS
Info: NONBONDED TABLE R-SQUARED SPACING: 0.0625
Info: NONBONDED TABLE SIZE: 769 POINTS
Info: NONBONDED TABLE R-SQUARED SPACING: 0.0625
Info: NONBONDED TABLE SIZE: 769 POINTS
Info: NONBONDED TABLE R-SQUARED SPACING: 0.0625
Info: NONBONDED TABLE SIZE: 769 POINTS
Info: NONBONDED TABLE R-SQUARED SPACING: 0.0625
Info: NONBONDED TABLE SIZE: 769 POINTS
Info: NONBONDED TABLE R-SQUARED SPACING: 0.0625
Info: NONBONDED TABLE SIZE: 769 POINTS
Info: NONBONDED TABLE R-SQUARED SPACING: 0.0625
Info: NONBONDED TABLE SIZE: 769 POINTS
Info: NONBONDED TABLE R-SQUARED SPACING: 0.0625
Info: NONBONDED TABLE SIZE: 769 POINTS
Info: NONBONDED TABLE R-SQUARED SPACING: 0.0625
Info: NONBONDED TABLE SIZE: 769 POINTS
Info: NONBONDED TABLE R-SQUARED SPACING: 0.0625
Info: NONBONDED TABLE SIZE: 769 POINTS
Info: NONBONDED TABLE R-SQUARED SPACING: 0.0625
Info: NONBONDED TABLE SIZE: 769 POINTS
Info: NONBONDED TABLE R-SQUARED SPACING: 0.0625
Info: NONBONDED TABLE SIZE: 769 POINTS
Info: NONBONDED TABLE R-SQUARED SPACING: 0.0625
Info: NONBONDED TABLE SIZE: 769 POINTS
Info: NONBONDED TABLE R-SQUARED SPACING: 0.0625
Info: NONBONDED TABLE SIZE: 769 POINTS
Info: NONBONDED TABLE R-SQUARED SPACING: 0.0625
Info: NONBONDED TABLE SIZE: 769 POINTS
Info: NONBONDED TABLE R-SQUARED SPACING: 0.0625
Info: NONBONDED TABLE SIZE: 769 POINTS
Info: NONBONDED TABLE R-SQUARED SPACING: 0.0625
Info: NONBONDED TABLE SIZE: 769 POINTS
Info: NONBONDED TABLE R-SQUARED SPACING: 0.0625
Info: NONBONDED TABLE SIZE: 769 POINTS
Info: NONBONDED TABLE R-SQUARED SPACING: 0.0625
Info: NONBONDED TABLE SIZE: 769 POINTS
Info: NONBONDED TABLE R-SQUARED SPACING: 0.0625
Info: NONBONDED TABLE SIZE: 769 POINTS
Info: NONBONDED TABLE R-SQUARED SPACING: 0.0625
Info: NONBONDED TABLE SIZE: 769 POINTS
Info: NONBONDED TABLE R-SQUARED SPACING: 0.0625
Info: NONBONDED TABLE SIZE: 769 POINTS
Info: NONBONDED TABLE R-SQUARED SPACING: 0.0625
Info: NONBONDED TABLE SIZE: 769 POINTS
Info: NONBONDED TABLE R-SQUARED SPACING: 0.0625
Info: NONBONDED TABLE SIZE: 769 POINTS
Info: NONBONDED TABLE R-SQUARED SPACING: 0.0625
Info: NONBONDED TABLE SIZE: 769 POINTS
Info: NONBONDED TABLE R-SQUARED SPACING: 0.0625
Info: NONBONDED TABLE SIZE: 769 POINTS
Info: NONBONDED TABLE R-SQUARED SPACING: 0.0625
Info: NONBONDED TABLE SIZE: 769 POINTS
Info: NONBONDED TABLE R-SQUARED SPACING: 0.0625
Info: NONBONDED TABLE SIZE: 769 POINTS
Info: NONBONDED TABLE R-SQUARED SPACING: 0.0625
Info: NONBONDED TABLE SIZE: 769 POINTS
Info: NONBONDED TABLE R-SQUARED SPACING: 0.0625
Info: NONBONDED TABLE SIZE: 769 POINTS
Info: NONBONDED TABLE R-SQUARED SPACING: 0.0625
Info: NONBONDED TABLE SIZE: 769 POINTS
Info: NONBONDED TABLE R-SQUARED SPACING: 0.0625
Info: NONBONDED TABLE SIZE: 769 POINTS
Info: NONBONDED TABLE R-SQUARED SPACING: 0.0625
Info: NONBONDED TABLE SIZE: 769 POINTS
Info: NONBONDED TABLE R-SQUARED SPACING: 0.0625
Info: NONBONDED TABLE SIZE: 769 POINTS
Info: NONBONDED TABLE R-SQUARED SPACING: 0.0625
Info: NONBONDED TABLE SIZE: 769 POINTS
Info: NONBONDED TABLE R-SQUARED SPACING: 0.0625
Info: NONBONDED TABLE SIZE: 769 POINTS
Info: NONBONDED TABLE R-SQUARED SPACING: 0.0625
Info: NONBONDED TABLE SIZE: 769 POINTS
Info: NONBONDED TABLE R-SQUARED SPACING: 0.0625
Info: NONBONDED TABLE SIZE: 769 POINTS
Info: NONBONDED TABLE R-SQUARED SPACING: 0.0625
Info: NONBONDED TABLE SIZE: 769 POINTS
Info: NONBONDED TABLE R-SQUARED SPACING: 0.0625
Info: NONBONDED TABLE SIZE: 769 POINTS
Info: NONBONDED TABLE R-SQUARED SPACING: 0.0625
Info: NONBONDED TABLE SIZE: 769 POINTS
Info: NONBONDED TABLE R-SQUARED SPACING: 0.0625
Info: NONBONDED TABLE SIZE: 769 POINTS
Info: NONBONDED TABLE R-SQUARED SPACING: 0.0625
Info: NONBONDED TABLE SIZE: 769 POINTS
Info: NONBONDED TABLE R-SQUARED SPACING: 0.0625
Info: NONBONDED TABLE SIZE: 769 POINTS
Info: NONBONDED TABLE R-SQUARED SPACING: 0.0625
Info: NONBONDED TABLE SIZE: 769 POINTS
Info: NONBONDED TABLE R-SQUARED SPACING: 0.0625
Info: NONBONDED TABLE SIZE: 769 POINTS
Info: NONBONDED TABLE R-SQUARED SPACING: 0.0625
Info: NONBONDED TABLE SIZE: 769 POINTS
Info: NONBONDED TABLE R-SQUARED SPACING: 0.0625
Info: NONBONDED TABLE SIZE: 769 POINTS
Info: NONBONDED TABLE R-SQUARED SPACING: 0.0625
Info: NONBONDED TABLE SIZE: 769 POINTS
Info: NONBONDED TABLE R-SQUARED SPACING: 0.0625
Info: NONBONDED TABLE SIZE: 769 POINTS
Info: NONBONDED TABLE R-SQUARED SPACING: 0.0625
Info: NONBONDED TABLE SIZE: 769 POINTS
Info: NONBONDED TABLE R-SQUARED SPACING: 0.0625
Info: NONBONDED TABLE SIZE: 769 POINTS
Info: NONBONDED TABLE R-SQUARED SPACING: 0.0625
Info: NONBONDED TABLE SIZE: 769 POINTS
Info: NONBONDED TABLE R-SQUARED SPACING: 0.0625
Info: NONBONDED TABLE SIZE: 769 POINTS
Info: NONBONDED TABLE R-SQUARED SPACING: 0.0625
Info: NONBONDED TABLE SIZE: 769 POINTS
Info: NONBONDED TABLE R-SQUARED SPACING: 0.0625
Info: NONBONDED TABLE SIZE: 769 POINTS
Info: NONBONDED TABLE R-SQUARED SPACING: 0.0625
Info: NONBONDED TABLE SIZE: 769 POINTS
Info: NONBONDED TABLE R-SQUARED SPACING: 0.0625
Info: NONBONDED TABLE SIZE: 769 POINTS
Info: NONBONDED TABLE R-SQUARED SPACING: 0.0625
Info: NONBONDED TABLE SIZE: 769 POINTS
Info: NONBONDED TABLE R-SQUARED SPACING: 0.0625
Info: NONBONDED TABLE SIZE: 769 POINTS
Info: NONBONDED TABLE R-SQUARED SPACING: 0.0625
Info: NONBONDED TABLE SIZE: 769 POINTS
Info: NONBONDED TABLE R-SQUARED SPACING: 0.0625
Info: NONBONDED TABLE SIZE: 769 POINTS
Info: NONBONDED TABLE R-SQUARED SPACING: 0.0625
Info: NONBONDED TABLE SIZE: 769 POINTS
Info: NONBONDED TABLE R-SQUARED SPACING: 0.0625
Info: NONBONDED TABLE SIZE: 769 POINTS
Info: NONBONDED TABLE R-SQUARED SPACING: 0.0625
Info: NONBONDED TABLE SIZE: 769 POINTS
Info: NONBONDED TABLE R-SQUARED SPACING: 0.0625
Info: NONBONDED TABLE SIZE: 769 POINTS
Info: NONBONDED TABLE R-SQUARED SPACING: 0.0625
Info: NONBONDED TABLE SIZE: 769 POINTS
Info: NONBONDED TABLE R-SQUARED SPACING: 0.0625
Info: NONBONDED TABLE SIZE: 769 POINTS
Info: NONBONDED TABLE R-SQUARED SPACING: 0.0625
Info: NONBONDED TABLE SIZE: 769 POINTS
Info: NONBONDED TABLE R-SQUARED SPACING: 0.0625
Info: NONBONDED TABLE SIZE: 769 POINTS
Info: NONBONDED TABLE R-SQUARED SPACING: 0.0625
Info: NONBONDED TABLE SIZE: 769 POINTS
Info: NONBONDED TABLE R-SQUARED SPACING: 0.0625
Info: NONBONDED TABLE SIZE: 769 POINTS
Info: NONBONDED TABLE R-SQUARED SPACING: 0.0625
Info: NONBONDED TABLE SIZE: 769 POINTS
Info: NONBONDED TABLE R-SQUARED SPACING: 0.0625
Info: NONBONDED TABLE SIZE: 769 POINTS
Info: NONBONDED TABLE R-SQUARED SPACING: 0.0625
Info: NONBONDED TABLE SIZE: 769 POINTS
Info: NONBONDED TABLE R-SQUARED SPACING: 0.0625
Info: NONBONDED TABLE SIZE: 769 POINTS
Info: NONBONDED TABLE R-SQUARED SPACING: 0.0625
Info: NONBONDED TABLE SIZE: 769 POINTS
Info: NONBONDED TABLE R-SQUARED SPACING: 0.0625
Info: NONBONDED TABLE SIZE: 769 POINTS
Info: NONBONDED TABLE R-SQUARED SPACING: 0.0625
Info: NONBONDED TABLE SIZE: 769 POINTS
Info: NONBONDED TABLE R-SQUARED SPACING: 0.0625
Info: NONBONDED TABLE SIZE: 769 POINTS
Info: NONBONDED TABLE R-SQUARED SPACING: 0.0625
Info: NONBONDED TABLE SIZE: 769 POINTS
Info: NONBONDED TABLE R-SQUARED SPACING: 0.0625
Info: NONBONDED TABLE SIZE: 769 POINTS
Info: NONBONDED TABLE R-SQUARED SPACING: 0.0625
Info: NONBONDED TABLE SIZE: 769 POINTS
Info: NONBONDED TABLE R-SQUARED SPACING: 0.0625
Info: NONBONDED TABLE SIZE: 769 POINTS
Info: NONBONDED TABLE R-SQUARED SPACING: 0.0625
Info: NONBONDED TABLE SIZE: 769 POINTS
Info: NONBONDED TABLE R-SQUARED SPACING: 0.0625
Info: NONBONDED TABLE SIZE: 769 POINTS
Info: NONBONDED TABLE R-SQUARED SPACING: 0.0625
Info: NONBONDED TABLE SIZE: 769 POINTS
Info: NONBONDED TABLE R-SQUARED SPACING: 0.0625
Info: NONBONDED TABLE SIZE: 769 POINTS
Info: NONBONDED TABLE R-SQUARED SPACING: 0.0625
Info: NONBONDED TABLE SIZE: 769 POINTS
Info: NONBONDED TABLE R-SQUARED SPACING: 0.0625
Info: NONBONDED TABLE SIZE: 769 POINTS
Info: NONBONDED TABLE R-SQUARED SPACING: 0.0625
Info: NONBONDED TABLE SIZE: 769 POINTS
Info: NONBONDED TABLE R-SQUARED SPACING: 0.0625
Info: NONBONDED TABLE SIZE: 769 POINTS
Info: NONBONDED TABLE R-SQUARED SPACING: 0.0625
Info: NONBONDED TABLE SIZE: 769 POINTS
Info: NONBONDED TABLE R-SQUARED SPACING: 0.0625
Info: NONBONDED TABLE SIZE: 769 POINTS
Info: NONBONDED TABLE R-SQUARED SPACING: 0.0625
Info: NONBONDED TABLE SIZE: 769 POINTS
Info: NONBONDED TABLE R-SQUARED SPACING: 0.0625
Info: NONBONDED TABLE SIZE: 769 POINTS
Info: NONBONDED TABLE R-SQUARED SPACING: 0.0625
Info: NONBONDED TABLE SIZE: 769 POINTS
Info: NONBONDED TABLE R-SQUARED SPACING: 0.0625
Info: NONBONDED TABLE SIZE: 769 POINTS
Info: NONBONDED TABLE R-SQUARED SPACING: 0.0625
Info: NONBONDED TABLE SIZE: 769 POINTS
Info: NONBONDED TABLE R-SQUARED SPACING: 0.0625
Info: NONBONDED TABLE SIZE: 769 POINTS
Info: NONBONDED TABLE R-SQUARED SPACING: 0.0625
Info: NONBONDED TABLE SIZE: 769 POINTS
Info: NONBONDED TABLE R-SQUARED SPACING: 0.0625
Info: NONBONDED TABLE SIZE: 769 POINTS
Info: NONBONDED TABLE R-SQUARED SPACING: 0.0625
Info: NONBONDED TABLE SIZE: 769 POINTS
Info: NONBONDED TABLE R-SQUARED SPACING: 0.0625
Info: NONBONDED TABLE SIZE: 769 POINTS
Info: NONBONDED TABLE R-SQUARED SPACING: 0.0625
Info: NONBONDED TABLE SIZE: 769 POINTS
Info: NONBONDED TABLE R-SQUARED SPACING: 0.0625
Info: NONBONDED TABLE SIZE: 769 POINTS
Info: NONBONDED TABLE R-SQUARED SPACING: 0.0625
Info: NONBONDED TABLE SIZE: 769 POINTS
Info: NONBONDED TABLE R-SQUARED SPACING: 0.0625
Info: NONBONDED TABLE SIZE: 769 POINTS
Info: NONBONDED TABLE R-SQUARED SPACING: 0.0625
Info: NONBONDED TABLE SIZE: 769 POINTS
Info: NONBONDED TABLE R-SQUARED SPACING: 0.0625
Info: NONBONDED TABLE SIZE: 769 POINTS
Info: NONBONDED TABLE R-SQUARED SPACING: 0.0625
Info: NONBONDED TABLE SIZE: 769 POINTS
Info: NONBONDED TABLE R-SQUARED SPACING: 0.0625
Info: NONBONDED TABLE SIZE: 769 POINTS
Info: NONBONDED TABLE R-SQUARED SPACING: 0.0625
Info: NONBONDED TABLE SIZE: 769 POINTS
Info: NONBONDED TABLE R-SQUARED SPACING: 0.0625
Info: NONBONDED TABLE SIZE: 769 POINTS
Info: NONBONDED TABLE R-SQUARED SPACING: 0.0625
Info: NONBONDED TABLE SIZE: 769 POINTS
Info: NONBONDED TABLE R-SQUARED SPACING: 0.0625
Info: NONBONDED TABLE SIZE: 769 POINTS
Info: NONBONDED TABLE R-SQUARED SPACING: 0.0625
Info: NONBONDED TABLE SIZE: 769 POINTS
Info: NONBONDED TABLE R-SQUARED SPACING: 0.0625
Info: NONBONDED TABLE SIZE: 769 POINTS
Info: NONBONDED TABLE R-SQUARED SPACING: 0.0625
Info: NONBONDED TABLE SIZE: 769 POINTS
Info: NONBONDED TABLE R-SQUARED SPACING: 0.0625
Info: NONBONDED TABLE SIZE: 769 POINTS
Info: NONBONDED TABLE R-SQUARED SPACING: 0.0625
Info: NONBONDED TABLE SIZE: 769 POINTS
Info: NONBONDED TABLE R-SQUARED SPACING: 0.0625
Info: NONBONDED TABLE SIZE: 769 POINTS
Info: NONBONDED TABLE R-SQUARED SPACING: 0.0625
Info: NONBONDED TABLE SIZE: 769 POINTS
Info: NONBONDED TABLE R-SQUARED SPACING: 0.0625
Info: NONBONDED TABLE SIZE: 769 POINTS
Info: NONBONDED TABLE R-SQUARED SPACING: 0.0625
Info: NONBONDED TABLE SIZE: 769 POINTS
Info: NONBONDED TABLE R-SQUARED SPACING: 0.0625
Info: NONBONDED TABLE SIZE: 769 POINTS
Info: NONBONDED TABLE R-SQUARED SPACING: 0.0625
Info: NONBONDED TABLE SIZE: 769 POINTS
Info: NONBONDED TABLE R-SQUARED SPACING: 0.0625
Info: NONBONDED TABLE SIZE: 769 POINTS
Info: NONBONDED TABLE R-SQUARED SPACING: 0.0625
Info: NONBONDED TABLE SIZE: 769 POINTS
Info: NONBONDED TABLE R-SQUARED SPACING: 0.0625
Info: NONBONDED TABLE SIZE: 769 POINTS
Info: NONBONDED TABLE R-SQUARED SPACING: 0.0625
Info: NONBONDED TABLE SIZE: 769 POINTS
Info: NONBONDED TABLE R-SQUARED SPACING: 0.0625
Info: NONBONDED TABLE SIZE: 769 POINTS
Info: NONBONDED TABLE R-SQUARED SPACING: 0.0625
Info: NONBONDED TABLE SIZE: 769 POINTS
Info: NONBONDED TABLE R-SQUARED SPACING: 0.0625
Info: NONBONDED TABLE SIZE: 769 POINTS
Info: NONBONDED TABLE R-SQUARED SPACING: 0.0625
Info: NONBONDED TABLE SIZE: 769 POINTS
Info: NONBONDED TABLE R-SQUARED SPACING: 0.0625
Info: NONBONDED TABLE SIZE: 769 POINTS
Info: NONBONDED TABLE R-SQUARED SPACING: 0.0625
Info: NONBONDED TABLE SIZE: 769 POINTS
Info: NONBONDED TABLE R-SQUARED SPACING: 0.0625
Info: NONBONDED TABLE SIZE: 769 POINTS
Info: NONBONDED TABLE R-SQUARED SPACING: 0.0625
Info: NONBONDED TABLE SIZE: 769 POINTS
Info: NONBONDED TABLE R-SQUARED SPACING: 0.0625
Info: NONBONDED TABLE SIZE: 769 POINTS
Info: NONBONDED TABLE R-SQUARED SPACING: 0.0625
Info: NONBONDED TABLE SIZE: 769 POINTS
Info: NONBONDED TABLE R-SQUARED SPACING: 0.0625
Info: NONBONDED TABLE SIZE: 769 POINTS
Info: NONBONDED TABLE R-SQUARED SPACING: 0.0625
Info: NONBONDED TABLE SIZE: 769 POINTS
Info: NONBONDED TABLE R-SQUARED SPACING: 0.0625
Info: NONBONDED TABLE SIZE: 769 POINTS
Info: NONBONDED TABLE R-SQUARED SPACING: 0.0625
Info: NONBONDED TABLE SIZE: 769 POINTS
Info: NONBONDED TABLE R-SQUARED SPACING: 0.0625
Info: NONBONDED TABLE SIZE: 769 POINTS
Info: NONBONDED TABLE R-SQUARED SPACING: 0.0625
Info: NONBONDED TABLE SIZE: 769 POINTS
Info: NONBONDED TABLE R-SQUARED SPACING: 0.0625
Info: NONBONDED TABLE SIZE: 769 POINTS
Info: NONBONDED TABLE R-SQUARED SPACING: 0.0625
Info: NONBONDED TABLE SIZE: 769 POINTS
Info: NONBONDED TABLE R-SQUARED SPACING: 0.0625
Info: NONBONDED TABLE SIZE: 769 POINTS
Info: NONBONDED TABLE R-SQUARED SPACING: 0.0625
Info: NONBONDED TABLE SIZE: 769 POINTS
Info: NONBONDED TABLE R-SQUARED SPACING: 0.0625
Info: NONBONDED TABLE SIZE: 769 POINTS
Info: NONBONDED TABLE R-SQUARED SPACING: 0.0625
Info: NONBONDED TABLE SIZE: 769 POINTS
Info: NONBONDED TABLE R-SQUARED SPACING: 0.0625
Info: NONBONDED TABLE SIZE: 769 POINTS
Info: NONBONDED TABLE R-SQUARED SPACING: 0.0625
Info: NONBONDED TABLE SIZE: 769 POINTS
Info: NONBONDED TABLE R-SQUARED SPACING: 0.0625
Info: NONBONDED TABLE SIZE: 769 POINTS
Info: NONBONDED TABLE R-SQUARED SPACING: 0.0625
Info: NONBONDED TABLE SIZE: 769 POINTS
Info: NONBONDED TABLE R-SQUARED SPACING: 0.0625
Info: NONBONDED TABLE SIZE: 769 POINTS
Info: NONBONDED TABLE R-SQUARED SPACING: 0.0625
Info: NONBONDED TABLE SIZE: 769 POINTS
Info: NONBONDED TABLE R-SQUARED SPACING: 0.0625
Info: NONBONDED TABLE SIZE: 769 POINTS
Info: NONBONDED TABLE R-SQUARED SPACING: 0.0625
Info: NONBONDED TABLE SIZE: 769 POINTS
Info: NONBONDED TABLE R-SQUARED SPACING: 0.0625
Info: NONBONDED TABLE SIZE: 769 POINTS
Info: NONBONDED TABLE R-SQUARED SPACING: 0.0625
Info: NONBONDED TABLE SIZE: 769 POINTS
Info: NONBONDED TABLE R-SQUARED SPACING: 0.0625
Info: NONBONDED TABLE SIZE: 769 POINTS
Info: NONBONDED TABLE R-SQUARED SPACING: 0.0625
Info: NONBONDED TABLE SIZE: 769 POINTS
Info: NONBONDED TABLE R-SQUARED SPACING: 0.0625
Info: NONBONDED TABLE SIZE: 769 POINTS
Info: NONBONDED TABLE R-SQUARED SPACING: 0.0625
Info: NONBONDED TABLE SIZE: 769 POINTS
Info: NONBONDED TABLE R-SQUARED SPACING: 0.0625
Info: NONBONDED TABLE SIZE: 769 POINTS
Info: NONBONDED TABLE R-SQUARED SPACING: 0.0625
Info: NONBONDED TABLE SIZE: 769 POINTS
Info: NONBONDED TABLE R-SQUARED SPACING: 0.0625
Info: NONBONDED TABLE SIZE: 769 POINTS
Info: NONBONDED TABLE R-SQUARED SPACING: 0.0625
Info: NONBONDED TABLE SIZE: 769 POINTS
Info: NONBONDED TABLE R-SQUARED SPACING: 0.0625
Info: NONBONDED TABLE SIZE: 769 POINTS
Info: NONBONDED TABLE R-SQUARED SPACING: 0.0625
Info: NONBONDED TABLE SIZE: 769 POINTS
Info: NONBONDED TABLE R-SQUARED SPACING: 0.0625
Info: NONBONDED TABLE SIZE: 769 POINTS
Info: NONBONDED TABLE R-SQUARED SPACING: 0.0625
Info: NONBONDED TABLE SIZE: 769 POINTS
Info: NONBONDED TABLE R-SQUARED SPACING: 0.0625
Info: NONBONDED TABLE SIZE: 769 POINTS
Info: NONBONDED TABLE R-SQUARED SPACING: 0.0625
Info: NONBONDED TABLE SIZE: 769 POINTS
Info: NONBONDED TABLE R-SQUARED SPACING: 0.0625
Info: NONBONDED TABLE SIZE: 769 POINTS
Info: NONBONDED TABLE R-SQUARED SPACING: 0.0625
Info: NONBONDED TABLE SIZE: 769 POINTS
Info: NONBONDED TABLE R-SQUARED SPACING: 0.0625
Info: NONBONDED TABLE SIZE: 769 POINTS
Info: NONBONDED TABLE R-SQUARED SPACING: 0.0625
Info: NONBONDED TABLE SIZE: 769 POINTS
Info: NONBONDED TABLE R-SQUARED SPACING: 0.0625
Info: NONBONDED TABLE SIZE: 769 POINTS
Info: NONBONDED TABLE R-SQUARED SPACING: 0.0625
Info: NONBONDED TABLE SIZE: 769 POINTS
Info: NONBONDED TABLE R-SQUARED SPACING: 0.0625
Info: NONBONDED TABLE SIZE: 769 POINTS
Info: NONBONDED TABLE R-SQUARED SPACING: 0.0625
Info: NONBONDED TABLE SIZE: 769 POINTS
Info: NONBONDED TABLE R-SQUARED SPACING: 0.0625
Info: NONBONDED TABLE SIZE: 769 POINTS
Info: NONBONDED TABLE R-SQUARED SPACING: 0.0625
Info: NONBONDED TABLE SIZE: 769 POINTS
Info: NONBONDED TABLE R-SQUARED SPACING: 0.0625
Info: NONBONDED TABLE SIZE: 769 POINTS
Info: NONBONDED TABLE R-SQUARED SPACING: 0.0625
Info: NONBONDED TABLE SIZE: 769 POINTS
Info: NONBONDED TABLE R-SQUARED SPACING: 0.0625
Info: NONBONDED TABLE SIZE: 769 POINTS
Info: NONBONDED TABLE R-SQUARED SPACING: 0.0625
Info: NONBONDED TABLE SIZE: 769 POINTS
Info: NONBONDED TABLE R-SQUARED SPACING: 0.0625
Info: NONBONDED TABLE SIZE: 769 POINTS
Info: NONBONDED TABLE R-SQUARED SPACING: 0.0625
Info: NONBONDED TABLE SIZE: 769 POINTS
Info: NONBONDED TABLE R-SQUARED SPACING: 0.0625
Info: NONBONDED TABLE SIZE: 769 POINTS
Info: NONBONDED TABLE R-SQUARED SPACING: 0.0625
Info: NONBONDED TABLE SIZE: 769 POINTS
Info: NONBONDED TABLE R-SQUARED SPACING: 0.0625
Info: NONBONDED TABLE SIZE: 769 POINTS
Info: NONBONDED TABLE R-SQUARED SPACING: 0.0625
Info: NONBONDED TABLE SIZE: 769 POINTS
Info: NONBONDED TABLE R-SQUARED SPACING: 0.0625
Info: NONBONDED TABLE SIZE: 769 POINTS
Info: NONBONDED TABLE R-SQUARED SPACING: 0.0625
Info: NONBONDED TABLE SIZE: 769 POINTS
Info: NONBONDED TABLE R-SQUARED SPACING: 0.0625
Info: NONBONDED TABLE SIZE: 769 POINTS
Info: NONBONDED TABLE R-SQUARED SPACING: 0.0625
Info: NONBONDED TABLE SIZE: 769 POINTS
Info: NONBONDED TABLE R-SQUARED SPACING: 0.0625
Info: NONBONDED TABLE SIZE: 769 POINTS
Info: NONBONDED TABLE R-SQUARED SPACING: 0.0625
Info: NONBONDED TABLE SIZE: 769 POINTS
Info: NONBONDED TABLE R-SQUARED SPACING: 0.0625
Info: NONBONDED TABLE SIZE: 769 POINTS
Info: NONBONDED TABLE R-SQUARED SPACING: 0.0625
Info: NONBONDED TABLE SIZE: 769 POINTS
Info: NONBONDED TABLE R-SQUARED SPACING: 0.0625
Info: NONBONDED TABLE SIZE: 769 POINTS
Info: NONBONDED TABLE R-SQUARED SPACING: 0.0625
Info: NONBONDED TABLE SIZE: 769 POINTS
Info: NONBONDED TABLE R-SQUARED SPACING: 0.0625
Info: NONBONDED TABLE SIZE: 769 POINTS
Info: NONBONDED TABLE R-SQUARED SPACING: 0.0625
Info: NONBONDED TABLE SIZE: 769 POINTS
Info: NONBONDED TABLE R-SQUARED SPACING: 0.0625
Info: NONBONDED TABLE SIZE: 769 POINTS
Info: NONBONDED TABLE R-SQUARED SPACING: 0.0625
Info: NONBONDED TABLE SIZE: 769 POINTS
Info: NONBONDED TABLE R-SQUARED SPACING: 0.0625
Info: NONBONDED TABLE SIZE: 769 POINTS
Info: NONBONDED TABLE R-SQUARED SPACING: 0.0625
Info: NONBONDED TABLE SIZE: 769 POINTS
Info: NONBONDED TABLE R-SQUARED SPACING: 0.0625
Info: NONBONDED TABLE SIZE: 769 POINTS
Info: NONBONDED TABLE R-SQUARED SPACING: 0.0625
Info: NONBONDED TABLE SIZE: 769 POINTS
Info: NONBONDED TABLE R-SQUARED SPACING: 0.0625
Info: NONBONDED TABLE SIZE: 769 POINTS
Info: NONBONDED TABLE R-SQUARED SPACING: 0.0625
Info: NONBONDED TABLE SIZE: 769 POINTS
Info: NONBONDED TABLE R-SQUARED SPACING: 0.0625
Info: NONBONDED TABLE SIZE: 769 POINTS
Info: NONBONDED TABLE R-SQUARED SPACING: 0.0625
Info: NONBONDED TABLE SIZE: 769 POINTS
Info: NONBONDED TABLE R-SQUARED SPACING: 0.0625
Info: NONBONDED TABLE SIZE: 769 POINTS
Info: NONBONDED TABLE R-SQUARED SPACING: 0.0625
Info: NONBONDED TABLE SIZE: 769 POINTS
Info: NONBONDED TABLE R-SQUARED SPACING: 0.0625
Info: NONBONDED TABLE SIZE: 769 POINTS
Info: NONBONDED TABLE R-SQUARED SPACING: 0.0625
Info: NONBONDED TABLE SIZE: 769 POINTS
Info: NONBONDED TABLE R-SQUARED SPACING: 0.0625
Info: NONBONDED TABLE SIZE: 769 POINTS
Info: NONBONDED TABLE R-SQUARED SPACING: 0.0625
Info: NONBONDED TABLE SIZE: 769 POINTS
Info: NONBONDED TABLE R-SQUARED SPACING: 0.0625
Info: NONBONDED TABLE SIZE: 769 POINTS
Info: NONBONDED TABLE R-SQUARED SPACING: 0.0625
Info: NONBONDED TABLE SIZE: 769 POINTS
Info: NONBONDED TABLE R-SQUARED SPACING: 0.0625
Info: NONBONDED TABLE SIZE: 769 POINTS
Info: NONBONDED TABLE R-SQUARED SPACING: 0.0625
Info: NONBONDED TABLE SIZE: 769 POINTS
Info: NONBONDED TABLE R-SQUARED SPACING: 0.0625
Info: NONBONDED TABLE SIZE: 769 POINTS
Info: NONBONDED TABLE R-SQUARED SPACING: 0.0625
Info: NONBONDED TABLE SIZE: 769 POINTS
Info: NONBONDED TABLE R-SQUARED SPACING: 0.0625
Info: NONBONDED TABLE SIZE: 769 POINTS
Info: NONBONDED TABLE R-SQUARED SPACING: 0.0625
Info: NONBONDED TABLE SIZE: 769 POINTS
Info: NONBONDED TABLE R-SQUARED SPACING: 0.0625
Info: NONBONDED TABLE SIZE: 769 POINTS
Info: NONBONDED TABLE R-SQUARED SPACING: 0.0625
Info: NONBONDED TABLE SIZE: 769 POINTS
Info: NONBONDED TABLE R-SQUARED SPACING: 0.0625
Info: NONBONDED TABLE SIZE: 769 POINTS
Info: NONBONDED TABLE R-SQUARED SPACING: 0.0625
Info: NONBONDED TABLE SIZE: 769 POINTS
Info: NONBONDED TABLE R-SQUARED SPACING: 0.0625
Info: NONBONDED TABLE SIZE: 769 POINTS
Info: NONBONDED TABLE R-SQUARED SPACING: 0.0625
Info: NONBONDED TABLE SIZE: 769 POINTS
Info: NONBONDED TABLE R-SQUARED SPACING: 0.0625
Info: NONBONDED TABLE SIZE: 769 POINTS
Info: NONBONDED TABLE R-SQUARED SPACING: 0.0625
Info: NONBONDED TABLE SIZE: 769 POINTS
Info: NONBONDED TABLE R-SQUARED SPACING: 0.0625
Info: NONBONDED TABLE SIZE: 769 POINTS
Info: NONBONDED TABLE R-SQUARED SPACING: 0.0625
Info: NONBONDED TABLE SIZE: 769 POINTS
Info: NONBONDED TABLE R-SQUARED SPACING: 0.0625
Info: NONBONDED TABLE SIZE: 769 POINTS
Info: NONBONDED TABLE R-SQUARED SPACING: 0.0625
Info: NONBONDED TABLE SIZE: 769 POINTS
Info: NONBONDED TABLE R-SQUARED SPACING: 0.0625
Info: NONBONDED TABLE SIZE: 769 POINTS
Info: NONBONDED TABLE R-SQUARED SPACING: 0.0625
Info: NONBONDED TABLE SIZE: 769 POINTS
Info: NONBONDED TABLE R-SQUARED SPACING: 0.0625
Info: NONBONDED TABLE SIZE: 769 POINTS
Info: NONBONDED TABLE R-SQUARED SPACING: 0.0625
Info: NONBONDED TABLE SIZE: 769 POINTS
Info: NONBONDED TABLE R-SQUARED SPACING: 0.0625
Info: NONBONDED TABLE SIZE: 769 POINTS
Info: NONBONDED TABLE R-SQUARED SPACING: 0.0625
Info: NONBONDED TABLE SIZE: 769 POINTS
Info: NONBONDED TABLE R-SQUARED SPACING: 0.0625
Info: NONBONDED TABLE SIZE: 769 POINTS
Info: NONBONDED TABLE R-SQUARED SPACING: 0.0625
Info: NONBONDED TABLE SIZE: 769 POINTS
Info: NONBONDED TABLE R-SQUARED SPACING: 0.0625
Info: NONBONDED TABLE SIZE: 769 POINTS
Info: NONBONDED TABLE R-SQUARED SPACING: 0.0625
Info: NONBONDED TABLE SIZE: 769 POINTS
Info: NONBONDED TABLE R-SQUARED SPACING: 0.0625
Info: NONBONDED TABLE SIZE: 769 POINTS
Info: NONBONDED TABLE R-SQUARED SPACING: 0.0625
Info: NONBONDED TABLE SIZE: 769 POINTS
Info: NONBONDED TABLE R-SQUARED SPACING: 0.0625
Info: NONBONDED TABLE SIZE: 769 POINTS
Info: NONBONDED TABLE R-SQUARED SPACING: 0.0625
Info: NONBONDED TABLE SIZE: 769 POINTS
Info: NONBONDED TABLE R-SQUARED SPACING: 0.0625
Info: NONBONDED TABLE SIZE: 769 POINTS
Info: NONBONDED TABLE R-SQUARED SPACING: 0.0625
Info: NONBONDED TABLE SIZE: 769 POINTS
Info: NONBONDED TABLE R-SQUARED SPACING: 0.0625
Info: NONBONDED TABLE SIZE: 769 POINTS
Info: NONBONDED TABLE R-SQUARED SPACING: 0.0625
Info: NONBONDED TABLE SIZE: 769 POINTS
Info: NONBONDED TABLE R-SQUARED SPACING: 0.0625
Info: NONBONDED TABLE SIZE: 769 POINTS
Info: NONBONDED TABLE R-SQUARED SPACING: 0.0625
Info: NONBONDED TABLE SIZE: 769 POINTS
Info: NONBONDED TABLE R-SQUARED SPACING: 0.0625
Info: NONBONDED TABLE SIZE: 769 POINTS
Info: NONBONDED TABLE R-SQUARED SPACING: 0.0625
Info: NONBONDED TABLE SIZE: 769 POINTS
Info: NONBONDED TABLE R-SQUARED SPACING: 0.0625
Info: NONBONDED TABLE SIZE: 769 POINTS
Info: NONBONDED TABLE R-SQUARED SPACING: 0.0625
Info: NONBONDED TABLE SIZE: 769 POINTS
Info: NONBONDED TABLE R-SQUARED SPACING: 0.0625
Info: NONBONDED TABLE SIZE: 769 POINTS
Info: NONBONDED TABLE R-SQUARED SPACING: 0.0625
Info: NONBONDED TABLE SIZE: 769 POINTS
Info: NONBONDED TABLE R-SQUARED SPACING: 0.0625
Info: NONBONDED TABLE SIZE: 769 POINTS
Info: NONBONDED TABLE R-SQUARED SPACING: 0.0625
Info: NONBONDED TABLE SIZE: 769 POINTS
Info: NONBONDED TABLE R-SQUARED SPACING: 0.0625
Info: NONBONDED TABLE SIZE: 769 POINTS
Info: NONBONDED TABLE R-SQUARED SPACING: 0.0625
Info: NONBONDED TABLE SIZE: 769 POINTS
Info: NONBONDED TABLE R-SQUARED SPACING: 0.0625
Info: NONBONDED TABLE SIZE: 769 POINTS
Info: NONBONDED TABLE R-SQUARED SPACING: 0.0625
Info: NONBONDED TABLE SIZE: 769 POINTS
Info: NONBONDED TABLE R-SQUARED SPACING: 0.0625
Info: NONBONDED TABLE SIZE: 769 POINTS
Info: NONBONDED TABLE R-SQUARED SPACING: 0.0625
Info: NONBONDED TABLE SIZE: 769 POINTS
Info: NONBONDED TABLE R-SQUARED SPACING: 0.0625
Info: NONBONDED TABLE SIZE: 769 POINTS
Info: NONBONDED TABLE R-SQUARED SPACING: 0.0625
Info: NONBONDED TABLE SIZE: 769 POINTS
Info: NONBONDED TABLE R-SQUARED SPACING: 0.0625
Info: NONBONDED TABLE SIZE: 769 POINTS
Info: NONBONDED TABLE R-SQUARED SPACING: 0.0625
Info: NONBONDED TABLE SIZE: 769 POINTS
Info: NONBONDED TABLE R-SQUARED SPACING: 0.0625
Info: NONBONDED TABLE SIZE: 769 POINTS
Info: NONBONDED TABLE R-SQUARED SPACING: 0.0625
Info: NONBONDED TABLE SIZE: 769 POINTS
Info: NONBONDED TABLE R-SQUARED SPACING: 0.0625
Info: NONBONDED TABLE SIZE: 769 POINTS
Info: NONBONDED TABLE R-SQUARED SPACING: 0.0625
Info: NONBONDED TABLE SIZE: 769 POINTS
Info: NONBONDED TABLE R-SQUARED SPACING: 0.0625
Info: NONBONDED TABLE SIZE: 769 POINTS
Info: NONBONDED TABLE R-SQUARED SPACING: 0.0625
Info: NONBONDED TABLE SIZE: 769 POINTS
Info: NONBONDED TABLE R-SQUARED SPACING: 0.0625
Info: NONBONDED TABLE SIZE: 769 POINTS
Info: NONBONDED TABLE R-SQUARED SPACING: 0.0625
Info: NONBONDED TABLE SIZE: 769 POINTS
Info: NONBONDED TABLE R-SQUARED SPACING: 0.0625
Info: NONBONDED TABLE SIZE: 769 POINTS
Info: NONBONDED TABLE R-SQUARED SPACING: 0.0625
Info: NONBONDED TABLE SIZE: 769 POINTS
Info: NONBONDED TABLE R-SQUARED SPACING: 0.0625
Info: NONBONDED TABLE SIZE: 769 POINTS
Info: NONBONDED TABLE R-SQUARED SPACING: 0.0625
Info: NONBONDED TABLE SIZE: 769 POINTS
Info: NONBONDED TABLE R-SQUARED SPACING: 0.0625
Info: NONBONDED TABLE SIZE: 769 POINTS
Info: NONBONDED TABLE R-SQUARED SPACING: 0.0625
Info: NONBONDED TABLE SIZE: 769 POINTS
Info: NONBONDED TABLE R-SQUARED SPACING: 0.0625
Info: NONBONDED TABLE SIZE: 769 POINTS
Info: NONBONDED TABLE R-SQUARED SPACING: 0.0625
Info: NONBONDED TABLE SIZE: 769 POINTS
Info: NONBONDED TABLE R-SQUARED SPACING: 0.0625
Info: NONBONDED TABLE SIZE: 769 POINTS
Info: NONBONDED TABLE R-SQUARED SPACING: 0.0625
Info: NONBONDED TABLE SIZE: 769 POINTS
Info: NONBONDED TABLE R-SQUARED SPACING: 0.0625
Info: NONBONDED TABLE SIZE: 769 POINTS
Info: NONBONDED TABLE R-SQUARED SPACING: 0.0625
Info: NONBONDED TABLE SIZE: 769 POINTS
Info: NONBONDED TABLE R-SQUARED SPACING: 0.0625
Info: NONBONDED TABLE SIZE: 769 POINTS
Info: NONBONDED TABLE R-SQUARED SPACING: 0.0625
Info: NONBONDED TABLE SIZE: 769 POINTS
Info: NONBONDED TABLE R-SQUARED SPACING: 0.0625
Info: NONBONDED TABLE SIZE: 769 POINTS
Info: NONBONDED TABLE R-SQUARED SPACING: 0.0625
Info: NONBONDED TABLE SIZE: 769 POINTS
Info: NONBONDED TABLE R-SQUARED SPACING: 0.0625
Info: NONBONDED TABLE SIZE: 769 POINTS
Info: NONBONDED TABLE R-SQUARED SPACING: 0.0625
Info: NONBONDED TABLE SIZE: 769 POINTS
Info: NONBONDED TABLE R-SQUARED SPACING: 0.0625
Info: NONBONDED TABLE SIZE: 769 POINTS
Info: NONBONDED TABLE R-SQUARED SPACING: 0.0625
Info: NONBONDED TABLE SIZE: 769 POINTS
Info: NONBONDED TABLE R-SQUARED SPACING: 0.0625
Info: NONBONDED TABLE SIZE: 769 POINTS
Info: NONBONDED TABLE R-SQUARED SPACING: 0.0625
Info: NONBONDED TABLE SIZE: 769 POINTS
Info: NONBONDED TABLE R-SQUARED SPACING: 0.0625
Info: NONBONDED TABLE SIZE: 769 POINTS
Info: NONBONDED TABLE R-SQUARED SPACING: 0.0625
Info: NONBONDED TABLE SIZE: 769 POINTS
Info: NONBONDED TABLE R-SQUARED SPACING: 0.0625
Info: NONBONDED TABLE SIZE: 769 POINTS
Info: NONBONDED TABLE R-SQUARED SPACING: 0.0625
Info: NONBONDED TABLE SIZE: 769 POINTS
Info: NONBONDED TABLE R-SQUARED SPACING: 0.0625
Info: NONBONDED TABLE SIZE: 769 POINTS
Info: NONBONDED TABLE R-SQUARED SPACING: 0.0625
Info: NONBONDED TABLE SIZE: 769 POINTS
Info: NONBONDED TABLE R-SQUARED SPACING: 0.0625
Info: NONBONDED TABLE SIZE: 769 POINTS
Info: NONBONDED TABLE R-SQUARED SPACING: 0.0625
Info: NONBONDED TABLE SIZE: 769 POINTS
Info: NONBONDED TABLE R-SQUARED SPACING: 0.0625
Info: NONBONDED TABLE SIZE: 769 POINTS
Info: NONBONDED TABLE R-SQUARED SPACING: 0.0625
Info: NONBONDED TABLE SIZE: 769 POINTS
Info: NONBONDED TABLE R-SQUARED SPACING: 0.0625
Info: NONBONDED TABLE SIZE: 769 POINTS
Info: NONBONDED TABLE R-SQUARED SPACING: 0.0625
Info: NONBONDED TABLE SIZE: 769 POINTS
Info: NONBONDED TABLE R-SQUARED SPACING: 0.0625
Info: NONBONDED TABLE SIZE: 769 POINTS
Info: NONBONDED TABLE R-SQUARED SPACING: 0.0625
Info: NONBONDED TABLE SIZE: 769 POINTS
Info: NONBONDED TABLE R-SQUARED SPACING: 0.0625
Info: NONBONDED TABLE SIZE: 769 POINTS
Info: NONBONDED TABLE R-SQUARED SPACING: 0.0625
Info: NONBONDED TABLE SIZE: 769 POINTS
Info: NONBONDED TABLE R-SQUARED SPACING: 0.0625
Info: NONBONDED TABLE SIZE: 769 POINTS
Info: NONBONDED TABLE R-SQUARED SPACING: 0.0625
Info: NONBONDED TABLE SIZE: 769 POINTS
Info: NONBONDED TABLE R-SQUARED SPACING: 0.0625
Info: NONBONDED TABLE SIZE: 769 POINTS
Info: NONBONDED TABLE R-SQUARED SPACING: 0.0625
Info: NONBONDED TABLE SIZE: 769 POINTS
Info: NONBONDED TABLE R-SQUARED SPACING: 0.0625
Info: NONBONDED TABLE SIZE: 769 POINTS
Info: NONBONDED TABLE R-SQUARED SPACING: 0.0625
Info: NONBONDED TABLE SIZE: 769 POINTS
Info: NONBONDED TABLE R-SQUARED SPACING: 0.0625
Info: NONBONDED TABLE SIZE: 769 POINTS
Info: NONBONDED TABLE R-SQUARED SPACING: 0.0625
Info: NONBONDED TABLE SIZE: 769 POINTS
Info: NONBONDED TABLE R-SQUARED SPACING: 0.0625
Info: NONBONDED TABLE SIZE: 769 POINTS
Info: NONBONDED TABLE R-SQUARED SPACING: 0.0625
Info: NONBONDED TABLE SIZE: 769 POINTS
Info: NONBONDED TABLE R-SQUARED SPACING: 0.0625
Info: NONBONDED TABLE SIZE: 769 POINTS
Info: NONBONDED TABLE R-SQUARED SPACING: 0.0625
Info: NONBONDED TABLE SIZE: 769 POINTS
Info: NONBONDED TABLE R-SQUARED SPACING: 0.0625
Info: NONBONDED TABLE SIZE: 769 POINTS
Info: NONBONDED TABLE R-SQUARED SPACING: 0.0625
Info: NONBONDED TABLE SIZE: 769 POINTS
Info: NONBONDED TABLE R-SQUARED SPACING: 0.0625
Info: NONBONDED TABLE SIZE: 769 POINTS
Info: NONBONDED TABLE R-SQUARED SPACING: 0.0625
Info: NONBONDED TABLE SIZE: 769 POINTS
Info: NONBONDED TABLE R-SQUARED SPACING: 0.0625
Info: NONBONDED TABLE SIZE: 769 POINTS
Info: NONBONDED TABLE R-SQUARED SPACING: 0.0625
Info: NONBONDED TABLE SIZE: 769 POINTS
Info: NONBONDED TABLE R-SQUARED SPACING: 0.0625
Info: NONBONDED TABLE SIZE: 769 POINTS
Info: NONBONDED TABLE R-SQUARED SPACING: 0.0625
Info: NONBONDED TABLE SIZE: 769 POINTS
Info: NONBONDED TABLE R-SQUARED SPACING: 0.0625
Info: NONBONDED TABLE SIZE: 769 POINTS
Info: NONBONDED TABLE R-SQUARED SPACING: 0.0625
Info: NONBONDED TABLE SIZE: 769 POINTS
Info: NONBONDED TABLE R-SQUARED SPACING: 0.0625
Info: NONBONDED TABLE SIZE: 769 POINTS
Info: NONBONDED TABLE R-SQUARED SPACING: 0.0625
Info: NONBONDED TABLE SIZE: 769 POINTS
Info: NONBONDED TABLE R-SQUARED SPACING: 0.0625
Info: NONBONDED TABLE SIZE: 769 POINTS
Info: NONBONDED TABLE R-SQUARED SPACING: 0.0625
Info: NONBONDED TABLE SIZE: 769 POINTS
Info: NONBONDED TABLE R-SQUARED SPACING: 0.0625
Info: NONBONDED TABLE SIZE: 769 POINTS
Info: NONBONDED TABLE R-SQUARED SPACING: 0.0625
Info: NONBONDED TABLE SIZE: 769 POINTS
Info: NONBONDED TABLE R-SQUARED SPACING: 0.0625
Info: NONBONDED TABLE SIZE: 769 POINTS
Info: NONBONDED TABLE R-SQUARED SPACING: 0.0625
Info: NONBONDED TABLE SIZE: 769 POINTS
Info: NONBONDED TABLE R-SQUARED SPACING: 0.0625
Info: NONBONDED TABLE SIZE: 769 POINTS
Info: NONBONDED TABLE R-SQUARED SPACING: 0.0625
Info: NONBONDED TABLE SIZE: 769 POINTS
Info: NONBONDED TABLE R-SQUARED SPACING: 0.0625
Info: NONBONDED TABLE SIZE: 769 POINTS
Info: NONBONDED TABLE R-SQUARED SPACING: 0.0625
Info: NONBONDED TABLE SIZE: 769 POINTS
Info: NONBONDED TABLE R-SQUARED SPACING: 0.0625
Info: NONBONDED TABLE SIZE: 769 POINTS
Info: NONBONDED TABLE R-SQUARED SPACING: 0.0625
Info: NONBONDED TABLE SIZE: 769 POINTS
Info: NONBONDED TABLE R-SQUARED SPACING: 0.0625
Info: NONBONDED TABLE SIZE: 769 POINTS
Info: NONBONDED TABLE R-SQUARED SPACING: 0.0625
Info: NONBONDED TABLE SIZE: 769 POINTS
Info: NONBONDED TABLE R-SQUARED SPACING: 0.0625
Info: NONBONDED TABLE SIZE: 769 POINTS
Info: NONBONDED TABLE R-SQUARED SPACING: 0.0625
Info: NONBONDED TABLE SIZE: 769 POINTS
Info: NONBONDED TABLE R-SQUARED SPACING: 0.0625
Info: NONBONDED TABLE SIZE: 769 POINTS
Info: NONBONDED TABLE R-SQUARED SPACING: 0.0625
Info: NONBONDED TABLE SIZE: 769 POINTS
